

                          U.S. Geological Survey
        Coupled Groundwater and Surface-water FLOW model (GSFLOW)
                         Version 2.0.0 06/25/2018

    An integration of the Precipitation-Runoff Modeling System (PRMS)
    and the Modular Groundwater Model (MODFLOW-NWT and MODFLOW-2005)


               Precipitation-Runoff Modeling System (PRMS)
                       Version 5.0.0 06/01/2018

                            MODFLOW-NWT-SWR1 
  U.S. GEOLOGICAL SURVEY MODULAR FINITE-DIFFERENCE GROUNDWATER-FLOW MODEL
                         WITH NEWTON FORMULATION
                         Version 1.1.4 4/01/2018
              BASED ON MODFLOW-2005 Version 1.12.0 02/03/2017
                      SWR1 Version 1.04.0 09/15/2016

              PROCESSES: GWF and OBS
              PACKAGES:  BAS, BCF, CHD, DE4, FHB, GAG, GHB,
                         HFB, HUF, LAK LPF, MNW1, MNW2, NWT,
                         PCG, SFR, SIP, UPW, UZF, WEL, SWI, SWT, LMT


        Process            Available Modules
--------------------------------------------------------------------
  Basin Definition: basin
    Cascading Flow: cascade
  Time Series Data: obs, water_use_read, dynamic_param_read
   Potet Solar Rad: soltab
  Temperature Dist: temp_1sta, temp_laps, temp_dist2, climate_hru
       Precip Dist: precip_1sta, precip_laps, precip_dist2,
                    climate_hru
Temp & Precip Dist: xyz_dist, ide_dist
    Solar Rad Dist: ccsolrad, ddsolrad, climate_hru
Transpiration Dist: transp_tindex, climate_hru, transp_frost
      Potential ET: potet_hamon, potet_jh, potet_pan, climate_hru,
                    potet_hs, potet_pt, potet_pm, potet_pm_sta
      Interception: intcp
     Snow Dynamics: snowcomp
    Surface Runoff: srunoff_smidx, srunoff_carea
         Soil Zone: soilzone
       Groundwater: gwflow
Streamflow Routing: strmflow, strmflow_in_out, muskingum,
                    muskingum_lake
Stream Temperature: stream_temp
    Output Summary: basin_sum, subbasin, map_results, prms_summary,
                    nhru_summary, nsub_summary, water_balance
                    basin_summary, nsegment_summary
     Preprocessing: write_climate_hru, frost_date
--------------------------------------------------------------------


    Active modules listed in the order in which they are called

        Process                   Module                Version Date
====================================================================
GSFLOW Computation Order       gsflow_prms                2018-06-25
Basin Definition               basin                      2018-04-06
Cascading Flow                 cascade                    2018-05-25
Common States and Fluxes       climateflow                2018-04-25
Potential Solar Radiation      soltab                     2016-09-09
PRMS Set Time Variables        prms_time                  2015-03-31
Time Series Data               obs                        2018-02-23
Temperature Distribution       temp_1sta                  2018-01-16
Precipitation Distribution     precip_1sta                2016-10-21
Solar Radiation Distribution   ddsolrad                   2016-11-03
Transpiration Distribution     transp_tindex              2015-01-06
Potential Evapotranspiration   potet_jh                   2016-05-10
Canopy Interception            intcp                      2018-02-26
Snow Dynamics                  snowcomp                   2018-05-04
Surface Runoff                 srunoff_smidx              2018-04-25
Soil Zone Computations         soilzone                   2018-04-25
GSFLOW PRMS to MODFLOW         gsflow_prms2mf             2017-11-15
GSFLOW MODFLOW to PRMS         gsflow_mf2prms             2017-11-15
GSFLOW Output Budget Summary   gsflow_budget              2018-03-02
GSFLOW Output CSV Summary      gsflow_sum                 2018-02-12
Output Summary                 subbasin                   2018-04-25
====================================================================
GSFLOW MODFLOW main            gsflow_modflow             2018-07-06
====================================================================
MODFLOW Packages
====================================================================
UZF-NWT Package                gwf2uzf1_NWT               2017-03-08
SFR-NWT Package                gwf2sfr7_NWT               2017-03-08
LAK-NWT Package                gwf2lak7_NWT               2016-07-21
====================================================================

Using NAME file: carmel.nam

Using Solver Package: NWT 

Using Control File: carmel.control

Using Parameter File: .\INPUT\prms\carmel_main.param

Writing var_init_file: .\input\prms\prms_carmel.in

Writing var_save_file: .\output\prms_carmel.out

Writing PRMS Water Budget File: .\output\carmel_prms.out

mxsziter = 200

Tolerance check for gvr_hru_pct:  0.5000000D-05

Percent difference between GVR mapping and active model domain:  0.0000000D+00

Water Budget print frequency is:   1

Writing GSFLOW Water Budget File: .\output\gsflow.out

Writing GSFLOW CSV File: .\output\gsflow.csv

Simulation time period: 1991/10/01 - 2015/09/30

====================================================================

Date: 1991/10/01; Stress:  1; Step:     1; Simulation step: 6941
                  MF iterations:      152; SZ iterations:    152

Date: 1991/10/02; Stress:  1; Step:     2; Simulation step: 6942
                  MF iterations:        5; SZ iterations:      5

Date: 1991/10/03; Stress:  1; Step:     3; Simulation step: 6943
                  MF iterations:       16; SZ iterations:     16

Date: 1991/10/04; Stress:  1; Step:     4; Simulation step: 6944
                  MF iterations:       14; SZ iterations:     14

Date: 1991/10/05; Stress:  1; Step:     5; Simulation step: 6945
                  MF iterations:       93; SZ iterations:     93

Date: 1991/10/06; Stress:  1; Step:     6; Simulation step: 6946
                  MF iterations:       72; SZ iterations:     72

Date: 1991/10/07; Stress:  1; Step:     7; Simulation step: 6947
                  MF iterations:       11; SZ iterations:     11

Date: 1991/10/08; Stress:  1; Step:     8; Simulation step: 6948
                  MF iterations:        5; SZ iterations:      5

Date: 1991/10/09; Stress:  1; Step:     9; Simulation step: 6949
                  MF iterations:        9; SZ iterations:      9

Date: 1991/10/10; Stress:  1; Step:    10; Simulation step: 6950
                  MF iterations:       11; SZ iterations:     11

Date: 1991/10/11; Stress:  1; Step:    11; Simulation step: 6951
                  MF iterations:       11; SZ iterations:     11

Date: 1991/10/12; Stress:  1; Step:    12; Simulation step: 6952
                  MF iterations:        4; SZ iterations:      4

Date: 1991/10/13; Stress:  1; Step:    13; Simulation step: 6953
                  MF iterations:        7; SZ iterations:      7

Date: 1991/10/14; Stress:  1; Step:    14; Simulation step: 6954
                  MF iterations:       10; SZ iterations:     10

Date: 1991/10/15; Stress:  1; Step:    15; Simulation step: 6955
                  MF iterations:        3; SZ iterations:      3

Date: 1991/10/16; Stress:  1; Step:    16; Simulation step: 6956
                  MF iterations:        3; SZ iterations:      3

Date: 1991/10/17; Stress:  1; Step:    17; Simulation step: 6957
                  MF iterations:        6; SZ iterations:      6

Date: 1991/10/18; Stress:  1; Step:    18; Simulation step: 6958
                  MF iterations:        9; SZ iterations:      9

Date: 1991/10/19; Stress:  1; Step:    19; Simulation step: 6959
                  MF iterations:       17; SZ iterations:     17

Date: 1991/10/20; Stress:  1; Step:    20; Simulation step: 6960
                  MF iterations:        7; SZ iterations:      7

Date: 1991/10/21; Stress:  1; Step:    21; Simulation step: 6961
                  MF iterations:        3; SZ iterations:      3

Date: 1991/10/22; Stress:  1; Step:    22; Simulation step: 6962
                  MF iterations:        3; SZ iterations:      3

Date: 1991/10/23; Stress:  1; Step:    23; Simulation step: 6963
                  MF iterations:        3; SZ iterations:      3

Date: 1991/10/24; Stress:  1; Step:    24; Simulation step: 6964
                  MF iterations:        3; SZ iterations:      3

Date: 1991/10/25; Stress:  1; Step:    25; Simulation step: 6965
                  MF iterations:        8; SZ iterations:      8

Date: 1991/10/26; Stress:  1; Step:    26; Simulation step: 6966
                  MF iterations:        3; SZ iterations:      3

Date: 1991/10/27; Stress:  1; Step:    27; Simulation step: 6967
                  MF iterations:        3; SZ iterations:      3

Date: 1991/10/28; Stress:  1; Step:    28; Simulation step: 6968
                  MF iterations:        7; SZ iterations:      7

Date: 1991/10/29; Stress:  1; Step:    29; Simulation step: 6969
                  MF iterations:        3; SZ iterations:      3

Date: 1991/10/30; Stress:  1; Step:    30; Simulation step: 6970
                  MF iterations:        4; SZ iterations:      4

Date: 1991/10/31; Stress:  1; Step:    31; Simulation step: 6971
                  MF iterations:        6; SZ iterations:      6

Date: 1991/11/01; Stress:  1; Step:    32; Simulation step: 6972
                  MF iterations:       38; SZ iterations:     38

Date: 1991/11/02; Stress:  1; Step:    33; Simulation step: 6973
                  MF iterations:       11; SZ iterations:     11

Date: 1991/11/03; Stress:  1; Step:    34; Simulation step: 6974
                  MF iterations:       13; SZ iterations:     13

Date: 1991/11/04; Stress:  1; Step:    35; Simulation step: 6975
                  MF iterations:       14; SZ iterations:     14

Date: 1991/11/05; Stress:  1; Step:    36; Simulation step: 6976
                  MF iterations:       22; SZ iterations:     22

Date: 1991/11/06; Stress:  1; Step:    37; Simulation step: 6977
                  MF iterations:       19; SZ iterations:     19

Date: 1991/11/07; Stress:  1; Step:    38; Simulation step: 6978
                  MF iterations:       14; SZ iterations:     14

Date: 1991/11/08; Stress:  1; Step:    39; Simulation step: 6979
                  MF iterations:       11; SZ iterations:     11

Date: 1991/11/09; Stress:  1; Step:    40; Simulation step: 6980
                  MF iterations:       14; SZ iterations:     14

Date: 1991/11/10; Stress:  1; Step:    41; Simulation step: 6981
                  MF iterations:       14; SZ iterations:     14

Date: 1991/11/11; Stress:  1; Step:    42; Simulation step: 6982
                  MF iterations:       14; SZ iterations:     14

Date: 1991/11/12; Stress:  1; Step:    43; Simulation step: 6983
                  MF iterations:       11; SZ iterations:     11

Date: 1991/11/13; Stress:  1; Step:    44; Simulation step: 6984
                  MF iterations:        8; SZ iterations:      8

Date: 1991/11/14; Stress:  1; Step:    45; Simulation step: 6985
                  MF iterations:        8; SZ iterations:      8

Date: 1991/11/15; Stress:  1; Step:    46; Simulation step: 6986
                  MF iterations:        5; SZ iterations:      5

Date: 1991/11/16; Stress:  1; Step:    47; Simulation step: 6987
                  MF iterations:        6; SZ iterations:      6

Date: 1991/11/17; Stress:  1; Step:    48; Simulation step: 6988
                  MF iterations:        3; SZ iterations:      3

Date: 1991/11/18; Stress:  1; Step:    49; Simulation step: 6989
                  MF iterations:        7; SZ iterations:      7

Date: 1991/11/19; Stress:  1; Step:    50; Simulation step: 6990
                  MF iterations:        7; SZ iterations:      7

Date: 1991/11/20; Stress:  1; Step:    51; Simulation step: 6991
                  MF iterations:        9; SZ iterations:      9

Date: 1991/11/21; Stress:  1; Step:    52; Simulation step: 6992
                  MF iterations:        8; SZ iterations:      8

Date: 1991/11/22; Stress:  1; Step:    53; Simulation step: 6993
                  MF iterations:       12; SZ iterations:     12

Date: 1991/11/23; Stress:  1; Step:    54; Simulation step: 6994
                  MF iterations:       16; SZ iterations:     16

Date: 1991/11/24; Stress:  1; Step:    55; Simulation step: 6995
                  MF iterations:       12; SZ iterations:     12

Date: 1991/11/25; Stress:  1; Step:    56; Simulation step: 6996
                  MF iterations:       11; SZ iterations:     11

Date: 1991/11/26; Stress:  1; Step:    57; Simulation step: 6997
                  MF iterations:       11; SZ iterations:     11

Date: 1991/11/27; Stress:  1; Step:    58; Simulation step: 6998
                  MF iterations:        5; SZ iterations:      5

Date: 1991/11/28; Stress:  1; Step:    59; Simulation step: 6999
                  MF iterations:        3; SZ iterations:      3

Date: 1991/11/29; Stress:  1; Step:    60; Simulation step: 7000
                  MF iterations:        3; SZ iterations:      3

Date: 1991/11/30; Stress:  1; Step:    61; Simulation step: 7001
                  MF iterations:        6; SZ iterations:      6

Date: 1991/12/01; Stress:  1; Step:    62; Simulation step: 7002
                  MF iterations:        6; SZ iterations:      6

Date: 1991/12/02; Stress:  1; Step:    63; Simulation step: 7003
                  MF iterations:        8; SZ iterations:      8

Date: 1991/12/03; Stress:  1; Step:    64; Simulation step: 7004
                  MF iterations:        9; SZ iterations:      9

Date: 1991/12/04; Stress:  1; Step:    65; Simulation step: 7005
                  MF iterations:        9; SZ iterations:      9

Date: 1991/12/05; Stress:  1; Step:    66; Simulation step: 7006
                  MF iterations:        9; SZ iterations:      9

Date: 1991/12/06; Stress:  1; Step:    67; Simulation step: 7007
                  MF iterations:        4; SZ iterations:      4

Date: 1991/12/07; Stress:  1; Step:    68; Simulation step: 7008
                  MF iterations:        7; SZ iterations:      7

Date: 1991/12/08; Stress:  1; Step:    69; Simulation step: 7009
                  MF iterations:        7; SZ iterations:      7

Date: 1991/12/09; Stress:  1; Step:    70; Simulation step: 7010
                  MF iterations:        5; SZ iterations:      5

Date: 1991/12/10; Stress:  1; Step:    71; Simulation step: 7011
                  MF iterations:        6; SZ iterations:      6

Date: 1991/12/11; Stress:  1; Step:    72; Simulation step: 7012
                  MF iterations:        5; SZ iterations:      5

Date: 1991/12/12; Stress:  1; Step:    73; Simulation step: 7013
                  MF iterations:        6; SZ iterations:      6

Date: 1991/12/13; Stress:  1; Step:    74; Simulation step: 7014
                  MF iterations:       10; SZ iterations:     10

Date: 1991/12/14; Stress:  1; Step:    75; Simulation step: 7015
                  MF iterations:        9; SZ iterations:      9

Date: 1991/12/15; Stress:  1; Step:    76; Simulation step: 7016
                  MF iterations:        8; SZ iterations:      8

Date: 1991/12/16; Stress:  1; Step:    77; Simulation step: 7017
                  MF iterations:        7; SZ iterations:      7

Date: 1991/12/17; Stress:  1; Step:    78; Simulation step: 7018
                  MF iterations:        9; SZ iterations:      9

Date: 1991/12/18; Stress:  1; Step:    79; Simulation step: 7019
                  MF iterations:        4; SZ iterations:      4

Date: 1991/12/19; Stress:  1; Step:    80; Simulation step: 7020
                  MF iterations:        9; SZ iterations:      9

Date: 1991/12/20; Stress:  1; Step:    81; Simulation step: 7021
                  MF iterations:        3; SZ iterations:      3

Date: 1991/12/21; Stress:  1; Step:    82; Simulation step: 7022
                  MF iterations:        4; SZ iterations:      4

Date: 1991/12/22; Stress:  1; Step:    83; Simulation step: 7023
                  MF iterations:        9; SZ iterations:      9

Date: 1991/12/23; Stress:  1; Step:    84; Simulation step: 7024
                  MF iterations:        6; SZ iterations:      6

Date: 1991/12/24; Stress:  1; Step:    85; Simulation step: 7025
                  MF iterations:       15; SZ iterations:     15

Date: 1991/12/25; Stress:  1; Step:    86; Simulation step: 7026
                  MF iterations:        6; SZ iterations:      6

Date: 1991/12/26; Stress:  1; Step:    87; Simulation step: 7027
                  MF iterations:        6; SZ iterations:      6

Date: 1991/12/27; Stress:  1; Step:    88; Simulation step: 7028
                  MF iterations:        5; SZ iterations:      5

Date: 1991/12/28; Stress:  1; Step:    89; Simulation step: 7029
                  MF iterations:       18; SZ iterations:     18

Date: 1991/12/29; Stress:  1; Step:    90; Simulation step: 7030
                  MF iterations:       55; SZ iterations:     55

Date: 1991/12/30; Stress:  1; Step:    91; Simulation step: 7031
                  MF iterations:       10; SZ iterations:     10

Date: 1991/12/31; Stress:  1; Step:    92; Simulation step: 7032
                  MF iterations:        5; SZ iterations:      5

Date: 1992/01/01; Stress:  1; Step:    93; Simulation step: 7033
                  MF iterations:        7; SZ iterations:      7

Date: 1992/01/02; Stress:  1; Step:    94; Simulation step: 7034
                  MF iterations:        4; SZ iterations:      4

Date: 1992/01/03; Stress:  1; Step:    95; Simulation step: 7035
                  MF iterations:       11; SZ iterations:     11

Date: 1992/01/04; Stress:  1; Step:    96; Simulation step: 7036
                  MF iterations:       22; SZ iterations:     22

Date: 1992/01/05; Stress:  1; Step:    97; Simulation step: 7037
                  MF iterations:       18; SZ iterations:     18

Date: 1992/01/06; Stress:  1; Step:    98; Simulation step: 7038
                  MF iterations:        5; SZ iterations:      5

Date: 1992/01/07; Stress:  1; Step:    99; Simulation step: 7039
                  MF iterations:        4; SZ iterations:      4

Date: 1992/01/08; Stress:  1; Step:   100; Simulation step: 7040
                  MF iterations:        9; SZ iterations:      9

Date: 1992/01/09; Stress:  1; Step:   101; Simulation step: 7041
                  MF iterations:        6; SZ iterations:      6

Date: 1992/01/10; Stress:  1; Step:   102; Simulation step: 7042
                  MF iterations:        8; SZ iterations:      8

Date: 1992/01/11; Stress:  1; Step:   103; Simulation step: 7043
                  MF iterations:        5; SZ iterations:      5

Date: 1992/01/12; Stress:  1; Step:   104; Simulation step: 7044
                  MF iterations:       14; SZ iterations:     14

Date: 1992/01/13; Stress:  1; Step:   105; Simulation step: 7045
                  MF iterations:        9; SZ iterations:      9

Date: 1992/01/14; Stress:  1; Step:   106; Simulation step: 7046
                  MF iterations:        5; SZ iterations:      5

Date: 1992/01/15; Stress:  1; Step:   107; Simulation step: 7047
                  MF iterations:        4; SZ iterations:      4

Date: 1992/01/16; Stress:  1; Step:   108; Simulation step: 7048
                  MF iterations:        7; SZ iterations:      7

Date: 1992/01/17; Stress:  1; Step:   109; Simulation step: 7049
                  MF iterations:        5; SZ iterations:      5

Date: 1992/01/18; Stress:  1; Step:   110; Simulation step: 7050
                  MF iterations:        4; SZ iterations:      4

Date: 1992/01/19; Stress:  1; Step:   111; Simulation step: 7051
                  MF iterations:        5; SZ iterations:      5

Date: 1992/01/20; Stress:  1; Step:   112; Simulation step: 7052
                  MF iterations:        4; SZ iterations:      4

Date: 1992/01/21; Stress:  1; Step:   113; Simulation step: 7053
                  MF iterations:        5; SZ iterations:      5

Date: 1992/01/22; Stress:  1; Step:   114; Simulation step: 7054
                  MF iterations:        4; SZ iterations:      4

Date: 1992/01/23; Stress:  1; Step:   115; Simulation step: 7055
                  MF iterations:        4; SZ iterations:      4

Date: 1992/01/24; Stress:  1; Step:   116; Simulation step: 7056
                  MF iterations:        4; SZ iterations:      4

Date: 1992/01/25; Stress:  1; Step:   117; Simulation step: 7057
                  MF iterations:        4; SZ iterations:      4

Date: 1992/01/26; Stress:  1; Step:   118; Simulation step: 7058
                  MF iterations:        3; SZ iterations:      3

Date: 1992/01/27; Stress:  1; Step:   119; Simulation step: 7059
                  MF iterations:        4; SZ iterations:      4

Date: 1992/01/28; Stress:  1; Step:   120; Simulation step: 7060
                  MF iterations:       10; SZ iterations:     10

Date: 1992/01/29; Stress:  1; Step:   121; Simulation step: 7061
                  MF iterations:       10; SZ iterations:     10

Date: 1992/01/30; Stress:  1; Step:   122; Simulation step: 7062
                  MF iterations:        8; SZ iterations:      8

Date: 1992/01/31; Stress:  1; Step:   123; Simulation step: 7063
                  MF iterations:        9; SZ iterations:      9

Date: 1992/02/01; Stress:  1; Step:   124; Simulation step: 7064
                  MF iterations:        4; SZ iterations:      4

Date: 1992/02/02; Stress:  1; Step:   125; Simulation step: 7065
                  MF iterations:        6; SZ iterations:      6

Date: 1992/02/03; Stress:  1; Step:   126; Simulation step: 7066
                  MF iterations:        6; SZ iterations:      6

Date: 1992/02/04; Stress:  1; Step:   127; Simulation step: 7067
                  MF iterations:        4; SZ iterations:      4

Date: 1992/02/05; Stress:  1; Step:   128; Simulation step: 7068
                  MF iterations:        6; SZ iterations:      6

Date: 1992/02/06; Stress:  1; Step:   129; Simulation step: 7069
                  MF iterations:        6; SZ iterations:      6

Date: 1992/02/07; Stress:  1; Step:   130; Simulation step: 7070
                  MF iterations:        6; SZ iterations:      6

Date: 1992/02/08; Stress:  1; Step:   131; Simulation step: 7071
                  MF iterations:        5; SZ iterations:      5

Date: 1992/02/09; Stress:  1; Step:   132; Simulation step: 7072
                  MF iterations:        4; SZ iterations:      4

Date: 1992/02/10; Stress:  1; Step:   133; Simulation step: 7073
                  MF iterations:       15; SZ iterations:     15

Date: 1992/02/11; Stress:  1; Step:   134; Simulation step: 7074
                  MF iterations:       72; SZ iterations:     72

Date: 1992/02/12; Stress:  1; Step:   135; Simulation step: 7075
                  MF iterations:        4; SZ iterations:      4

Date: 1992/02/13; Stress:  1; Step:   136; Simulation step: 7076
                  MF iterations:        4; SZ iterations:      4

Date: 1992/02/14; Stress:  1; Step:   137; Simulation step: 7077
                  MF iterations:        5; SZ iterations:      5

***TIME STEP FAILED TO CONVERGE - Date: 1992/02/15 number:     1

Date: 1992/02/15; Stress:  1; Step:   138; Simulation step: 7078
                  MF iterations:      200; SZ iterations:    200

Date: 1992/02/16; Stress:  1; Step:   139; Simulation step: 7079
                  MF iterations:      102; SZ iterations:    102

Date: 1992/02/17; Stress:  1; Step:   140; Simulation step: 7080
                  MF iterations:       10; SZ iterations:     10

Date: 1992/02/18; Stress:  1; Step:   141; Simulation step: 7081
                  MF iterations:        4; SZ iterations:      4

Date: 1992/02/19; Stress:  1; Step:   142; Simulation step: 7082
                  MF iterations:       23; SZ iterations:     23

Date: 1992/02/20; Stress:  1; Step:   143; Simulation step: 7083
                  MF iterations:        4; SZ iterations:      4

Date: 1992/02/21; Stress:  1; Step:   144; Simulation step: 7084
                  MF iterations:        4; SZ iterations:      4

Date: 1992/02/22; Stress:  1; Step:   145; Simulation step: 7085
                  MF iterations:        4; SZ iterations:      4

Date: 1992/02/23; Stress:  1; Step:   146; Simulation step: 7086
                  MF iterations:        8; SZ iterations:      8

Date: 1992/02/24; Stress:  1; Step:   147; Simulation step: 7087
                  MF iterations:        4; SZ iterations:      4

Date: 1992/02/25; Stress:  1; Step:   148; Simulation step: 7088
                  MF iterations:        4; SZ iterations:      4

Date: 1992/02/26; Stress:  1; Step:   149; Simulation step: 7089
                  MF iterations:        8; SZ iterations:      8

Date: 1992/02/27; Stress:  1; Step:   150; Simulation step: 7090
                  MF iterations:        5; SZ iterations:      5

Date: 1992/02/28; Stress:  1; Step:   151; Simulation step: 7091
                  MF iterations:        4; SZ iterations:      4

Date: 1992/02/29; Stress:  1; Step:   152; Simulation step: 7092
                  MF iterations:        4; SZ iterations:      4

Date: 1992/03/01; Stress:  1; Step:   153; Simulation step: 7093
                  MF iterations:        4; SZ iterations:      4

Date: 1992/03/02; Stress:  1; Step:   154; Simulation step: 7094
                  MF iterations:        4; SZ iterations:      4

Date: 1992/03/03; Stress:  1; Step:   155; Simulation step: 7095
                  MF iterations:        4; SZ iterations:      4

Date: 1992/03/04; Stress:  1; Step:   156; Simulation step: 7096
                  MF iterations:        4; SZ iterations:      4

Date: 1992/03/05; Stress:  1; Step:   157; Simulation step: 7097
                  MF iterations:        4; SZ iterations:      4

Date: 1992/03/06; Stress:  1; Step:   158; Simulation step: 7098
                  MF iterations:       16; SZ iterations:     16

Date: 1992/03/07; Stress:  1; Step:   159; Simulation step: 7099
                  MF iterations:       22; SZ iterations:     22

Date: 1992/03/08; Stress:  1; Step:   160; Simulation step: 7100
                  MF iterations:       16; SZ iterations:     16

Date: 1992/03/09; Stress:  1; Step:   161; Simulation step: 7101
                  MF iterations:        6; SZ iterations:      6

Date: 1992/03/10; Stress:  1; Step:   162; Simulation step: 7102
                  MF iterations:        6; SZ iterations:      6

Date: 1992/03/11; Stress:  1; Step:   163; Simulation step: 7103
                  MF iterations:       11; SZ iterations:     11

Date: 1992/03/12; Stress:  1; Step:   164; Simulation step: 7104
                  MF iterations:        4; SZ iterations:      4

Date: 1992/03/13; Stress:  1; Step:   165; Simulation step: 7105
                  MF iterations:        5; SZ iterations:      5

Date: 1992/03/14; Stress:  1; Step:   166; Simulation step: 7106
                  MF iterations:        5; SZ iterations:      5

Date: 1992/03/15; Stress:  1; Step:   167; Simulation step: 7107
                  MF iterations:        4; SZ iterations:      4

Date: 1992/03/16; Stress:  1; Step:   168; Simulation step: 7108
                  MF iterations:        7; SZ iterations:      7

Date: 1992/03/17; Stress:  1; Step:   169; Simulation step: 7109
                  MF iterations:        8; SZ iterations:      8

Date: 1992/03/18; Stress:  1; Step:   170; Simulation step: 7110
                  MF iterations:        7; SZ iterations:      7

Date: 1992/03/19; Stress:  1; Step:   171; Simulation step: 7111
                  MF iterations:        8; SZ iterations:      8

Date: 1992/03/20; Stress:  1; Step:   172; Simulation step: 7112
                  MF iterations:       10; SZ iterations:     10

Date: 1992/03/21; Stress:  1; Step:   173; Simulation step: 7113
                  MF iterations:        7; SZ iterations:      7

Date: 1992/03/22; Stress:  1; Step:   174; Simulation step: 7114
                  MF iterations:        4; SZ iterations:      4

Date: 1992/03/23; Stress:  1; Step:   175; Simulation step: 7115
                  MF iterations:        4; SZ iterations:      4

Date: 1992/03/24; Stress:  1; Step:   176; Simulation step: 7116
                  MF iterations:        6; SZ iterations:      6

Date: 1992/03/25; Stress:  1; Step:   177; Simulation step: 7117
                  MF iterations:       11; SZ iterations:     11

Date: 1992/03/26; Stress:  1; Step:   178; Simulation step: 7118
                  MF iterations:       12; SZ iterations:     12

Date: 1992/03/27; Stress:  1; Step:   179; Simulation step: 7119
                  MF iterations:       11; SZ iterations:     11

Date: 1992/03/28; Stress:  1; Step:   180; Simulation step: 7120
                  MF iterations:       14; SZ iterations:     14

Date: 1992/03/29; Stress:  1; Step:   181; Simulation step: 7121
                  MF iterations:       11; SZ iterations:     11

Date: 1992/03/30; Stress:  1; Step:   182; Simulation step: 7122
                  MF iterations:       11; SZ iterations:     11

Date: 1992/03/31; Stress:  1; Step:   183; Simulation step: 7123
                  MF iterations:       20; SZ iterations:     20

Date: 1992/04/01; Stress:  1; Step:   184; Simulation step: 7124
                  MF iterations:       14; SZ iterations:     14

Date: 1992/04/02; Stress:  1; Step:   185; Simulation step: 7125
                  MF iterations:       18; SZ iterations:     18

Date: 1992/04/03; Stress:  1; Step:   186; Simulation step: 7126
                  MF iterations:       14; SZ iterations:     14

Date: 1992/04/04; Stress:  1; Step:   187; Simulation step: 7127
                  MF iterations:       15; SZ iterations:     15

Date: 1992/04/05; Stress:  1; Step:   188; Simulation step: 7128
                  MF iterations:       11; SZ iterations:     11

Date: 1992/04/06; Stress:  1; Step:   189; Simulation step: 7129
                  MF iterations:       14; SZ iterations:     14

Date: 1992/04/07; Stress:  1; Step:   190; Simulation step: 7130
                  MF iterations:       18; SZ iterations:     18

Date: 1992/04/08; Stress:  1; Step:   191; Simulation step: 7131
                  MF iterations:       11; SZ iterations:     11

Date: 1992/04/09; Stress:  1; Step:   192; Simulation step: 7132
                  MF iterations:       11; SZ iterations:     11

Date: 1992/04/10; Stress:  1; Step:   193; Simulation step: 7133
                  MF iterations:       10; SZ iterations:     10

Date: 1992/04/11; Stress:  1; Step:   194; Simulation step: 7134
                  MF iterations:       11; SZ iterations:     11

Date: 1992/04/12; Stress:  1; Step:   195; Simulation step: 7135
                  MF iterations:       26; SZ iterations:     26

Date: 1992/04/13; Stress:  1; Step:   196; Simulation step: 7136
                  MF iterations:       10; SZ iterations:     10

Date: 1992/04/14; Stress:  1; Step:   197; Simulation step: 7137
                  MF iterations:       10; SZ iterations:     10

Date: 1992/04/15; Stress:  1; Step:   198; Simulation step: 7138
                  MF iterations:       14; SZ iterations:     14

Date: 1992/04/16; Stress:  1; Step:   199; Simulation step: 7139
                  MF iterations:       16; SZ iterations:     16

Date: 1992/04/17; Stress:  1; Step:   200; Simulation step: 7140
                  MF iterations:       16; SZ iterations:     16

Date: 1992/04/18; Stress:  1; Step:   201; Simulation step: 7141
                  MF iterations:       16; SZ iterations:     16

Date: 1992/04/19; Stress:  1; Step:   202; Simulation step: 7142
                  MF iterations:       17; SZ iterations:     17

Date: 1992/04/20; Stress:  1; Step:   203; Simulation step: 7143
                  MF iterations:       15; SZ iterations:     15

Date: 1992/04/21; Stress:  1; Step:   204; Simulation step: 7144
                  MF iterations:       13; SZ iterations:     13

Date: 1992/04/22; Stress:  1; Step:   205; Simulation step: 7145
                  MF iterations:       14; SZ iterations:     14

Date: 1992/04/23; Stress:  1; Step:   206; Simulation step: 7146
                  MF iterations:       19; SZ iterations:     19

Date: 1992/04/24; Stress:  1; Step:   207; Simulation step: 7147
                  MF iterations:       22; SZ iterations:     22

Date: 1992/04/25; Stress:  1; Step:   208; Simulation step: 7148
                  MF iterations:       19; SZ iterations:     19

Date: 1992/04/26; Stress:  1; Step:   209; Simulation step: 7149
                  MF iterations:       19; SZ iterations:     19

Date: 1992/04/27; Stress:  1; Step:   210; Simulation step: 7150
                  MF iterations:       24; SZ iterations:     24

Date: 1992/04/28; Stress:  1; Step:   211; Simulation step: 7151
                  MF iterations:       28; SZ iterations:     28

Date: 1992/04/29; Stress:  1; Step:   212; Simulation step: 7152
                  MF iterations:       22; SZ iterations:     22

Date: 1992/04/30; Stress:  1; Step:   213; Simulation step: 7153
                  MF iterations:       16; SZ iterations:     16

Date: 1992/05/01; Stress:  1; Step:   214; Simulation step: 7154
                  MF iterations:       18; SZ iterations:     18

Date: 1992/05/02; Stress:  1; Step:   215; Simulation step: 7155
                  MF iterations:       21; SZ iterations:     21

Date: 1992/05/03; Stress:  1; Step:   216; Simulation step: 7156
                  MF iterations:       16; SZ iterations:     16

Date: 1992/05/04; Stress:  1; Step:   217; Simulation step: 7157
                  MF iterations:       14; SZ iterations:     14

Date: 1992/05/05; Stress:  1; Step:   218; Simulation step: 7158
                  MF iterations:       21; SZ iterations:     21

Date: 1992/05/06; Stress:  1; Step:   219; Simulation step: 7159
                  MF iterations:       17; SZ iterations:     17

Date: 1992/05/07; Stress:  1; Step:   220; Simulation step: 7160
                  MF iterations:       17; SZ iterations:     17

Date: 1992/05/08; Stress:  1; Step:   221; Simulation step: 7161
                  MF iterations:       22; SZ iterations:     22

Date: 1992/05/09; Stress:  1; Step:   222; Simulation step: 7162
                  MF iterations:       15; SZ iterations:     15

Date: 1992/05/10; Stress:  1; Step:   223; Simulation step: 7163
                  MF iterations:       20; SZ iterations:     20

Date: 1992/05/11; Stress:  1; Step:   224; Simulation step: 7164
                  MF iterations:       18; SZ iterations:     18

Date: 1992/05/12; Stress:  1; Step:   225; Simulation step: 7165
                  MF iterations:       15; SZ iterations:     15

Date: 1992/05/13; Stress:  1; Step:   226; Simulation step: 7166
                  MF iterations:       16; SZ iterations:     16

Date: 1992/05/14; Stress:  1; Step:   227; Simulation step: 7167
                  MF iterations:       16; SZ iterations:     16

Date: 1992/05/15; Stress:  1; Step:   228; Simulation step: 7168
                  MF iterations:       22; SZ iterations:     22

Date: 1992/05/16; Stress:  1; Step:   229; Simulation step: 7169
                  MF iterations:       14; SZ iterations:     14

Date: 1992/05/17; Stress:  1; Step:   230; Simulation step: 7170
                  MF iterations:       17; SZ iterations:     17

Date: 1992/05/18; Stress:  1; Step:   231; Simulation step: 7171
                  MF iterations:       14; SZ iterations:     14

Date: 1992/05/19; Stress:  1; Step:   232; Simulation step: 7172
                  MF iterations:       13; SZ iterations:     13

Date: 1992/05/20; Stress:  1; Step:   233; Simulation step: 7173
                  MF iterations:       16; SZ iterations:     16

Date: 1992/05/21; Stress:  1; Step:   234; Simulation step: 7174
                  MF iterations:       19; SZ iterations:     19

Date: 1992/05/22; Stress:  1; Step:   235; Simulation step: 7175
                  MF iterations:       17; SZ iterations:     17

Date: 1992/05/23; Stress:  1; Step:   236; Simulation step: 7176
                  MF iterations:       14; SZ iterations:     14

Date: 1992/05/24; Stress:  1; Step:   237; Simulation step: 7177
                  MF iterations:       19; SZ iterations:     19

Date: 1992/05/25; Stress:  1; Step:   238; Simulation step: 7178
                  MF iterations:       17; SZ iterations:     17

Date: 1992/05/26; Stress:  1; Step:   239; Simulation step: 7179
                  MF iterations:       17; SZ iterations:     17

Date: 1992/05/27; Stress:  1; Step:   240; Simulation step: 7180
                  MF iterations:       17; SZ iterations:     17

Date: 1992/05/28; Stress:  1; Step:   241; Simulation step: 7181
                  MF iterations:       18; SZ iterations:     18

Date: 1992/05/29; Stress:  1; Step:   242; Simulation step: 7182
                  MF iterations:       15; SZ iterations:     15

Date: 1992/05/30; Stress:  1; Step:   243; Simulation step: 7183
                  MF iterations:       17; SZ iterations:     17

Date: 1992/05/31; Stress:  1; Step:   244; Simulation step: 7184
                  MF iterations:       17; SZ iterations:     17

Date: 1992/06/01; Stress:  1; Step:   245; Simulation step: 7185
                  MF iterations:       15; SZ iterations:     15

Date: 1992/06/02; Stress:  1; Step:   246; Simulation step: 7186
                  MF iterations:       18; SZ iterations:     18

Date: 1992/06/03; Stress:  1; Step:   247; Simulation step: 7187
                  MF iterations:       13; SZ iterations:     13

Date: 1992/06/04; Stress:  1; Step:   248; Simulation step: 7188
                  MF iterations:       15; SZ iterations:     15

Date: 1992/06/05; Stress:  1; Step:   249; Simulation step: 7189
                  MF iterations:       16; SZ iterations:     16

Date: 1992/06/06; Stress:  1; Step:   250; Simulation step: 7190
                  MF iterations:       27; SZ iterations:     27

Date: 1992/06/07; Stress:  1; Step:   251; Simulation step: 7191
                  MF iterations:       14; SZ iterations:     14

Date: 1992/06/08; Stress:  1; Step:   252; Simulation step: 7192
                  MF iterations:       24; SZ iterations:     24

Date: 1992/06/09; Stress:  1; Step:   253; Simulation step: 7193
                  MF iterations:       30; SZ iterations:     30

Date: 1992/06/10; Stress:  1; Step:   254; Simulation step: 7194
                  MF iterations:       14; SZ iterations:     14

Date: 1992/06/11; Stress:  1; Step:   255; Simulation step: 7195
                  MF iterations:       16; SZ iterations:     16

Date: 1992/06/12; Stress:  1; Step:   256; Simulation step: 7196
                  MF iterations:       30; SZ iterations:     30

Date: 1992/06/13; Stress:  1; Step:   257; Simulation step: 7197
                  MF iterations:       16; SZ iterations:     16

Date: 1992/06/14; Stress:  1; Step:   258; Simulation step: 7198
                  MF iterations:       13; SZ iterations:     13

Date: 1992/06/15; Stress:  1; Step:   259; Simulation step: 7199
                  MF iterations:       27; SZ iterations:     27

Date: 1992/06/16; Stress:  1; Step:   260; Simulation step: 7200
                  MF iterations:       45; SZ iterations:     45

Date: 1992/06/17; Stress:  1; Step:   261; Simulation step: 7201
                  MF iterations:       15; SZ iterations:     15

Date: 1992/06/18; Stress:  1; Step:   262; Simulation step: 7202
                  MF iterations:       14; SZ iterations:     14

Date: 1992/06/19; Stress:  1; Step:   263; Simulation step: 7203
                  MF iterations:       22; SZ iterations:     22

Date: 1992/06/20; Stress:  1; Step:   264; Simulation step: 7204
                  MF iterations:       17; SZ iterations:     17

Date: 1992/06/21; Stress:  1; Step:   265; Simulation step: 7205
                  MF iterations:       25; SZ iterations:     25

Date: 1992/06/22; Stress:  1; Step:   266; Simulation step: 7206
                  MF iterations:       31; SZ iterations:     31

Date: 1992/06/23; Stress:  1; Step:   267; Simulation step: 7207
                  MF iterations:       19; SZ iterations:     19

Date: 1992/06/24; Stress:  1; Step:   268; Simulation step: 7208
                  MF iterations:       18; SZ iterations:     18

Date: 1992/06/25; Stress:  1; Step:   269; Simulation step: 7209
                  MF iterations:       19; SZ iterations:     19

Date: 1992/06/26; Stress:  1; Step:   270; Simulation step: 7210
                  MF iterations:       64; SZ iterations:     64

Date: 1992/06/27; Stress:  1; Step:   271; Simulation step: 7211
                  MF iterations:        4; SZ iterations:      4

Date: 1992/06/28; Stress:  1; Step:   272; Simulation step: 7212
                  MF iterations:        4; SZ iterations:      4

Date: 1992/06/29; Stress:  1; Step:   273; Simulation step: 7213
                  MF iterations:        7; SZ iterations:      7

Date: 1992/06/30; Stress:  1; Step:   274; Simulation step: 7214
                  MF iterations:       14; SZ iterations:     14

Date: 1992/07/01; Stress:  1; Step:   275; Simulation step: 7215
                  MF iterations:       36; SZ iterations:     36

Date: 1992/07/02; Stress:  1; Step:   276; Simulation step: 7216
                  MF iterations:       23; SZ iterations:     23

Date: 1992/07/03; Stress:  1; Step:   277; Simulation step: 7217
                  MF iterations:        7; SZ iterations:      7

Date: 1992/07/04; Stress:  1; Step:   278; Simulation step: 7218
                  MF iterations:       10; SZ iterations:     10

Date: 1992/07/05; Stress:  1; Step:   279; Simulation step: 7219
                  MF iterations:       10; SZ iterations:     10

Date: 1992/07/06; Stress:  1; Step:   280; Simulation step: 7220
                  MF iterations:        7; SZ iterations:      7

Date: 1992/07/07; Stress:  1; Step:   281; Simulation step: 7221
                  MF iterations:       13; SZ iterations:     13

Date: 1992/07/08; Stress:  1; Step:   282; Simulation step: 7222
                  MF iterations:       42; SZ iterations:     42

Date: 1992/07/09; Stress:  1; Step:   283; Simulation step: 7223
                  MF iterations:       61; SZ iterations:     61

Date: 1992/07/10; Stress:  1; Step:   284; Simulation step: 7224
                  MF iterations:       14; SZ iterations:     14

Date: 1992/07/11; Stress:  1; Step:   285; Simulation step: 7225
                  MF iterations:       15; SZ iterations:     15

Date: 1992/07/12; Stress:  1; Step:   286; Simulation step: 7226
                  MF iterations:       14; SZ iterations:     14

Date: 1992/07/13; Stress:  1; Step:   287; Simulation step: 7227
                  MF iterations:       13; SZ iterations:     13

Date: 1992/07/14; Stress:  1; Step:   288; Simulation step: 7228
                  MF iterations:       14; SZ iterations:     14

Date: 1992/07/15; Stress:  1; Step:   289; Simulation step: 7229
                  MF iterations:       15; SZ iterations:     15

Date: 1992/07/16; Stress:  1; Step:   290; Simulation step: 7230
                  MF iterations:       15; SZ iterations:     15

Date: 1992/07/17; Stress:  1; Step:   291; Simulation step: 7231
                  MF iterations:       14; SZ iterations:     14

Date: 1992/07/18; Stress:  1; Step:   292; Simulation step: 7232
                  MF iterations:       11; SZ iterations:     11

Date: 1992/07/19; Stress:  1; Step:   293; Simulation step: 7233
                  MF iterations:       11; SZ iterations:     11

Date: 1992/07/20; Stress:  1; Step:   294; Simulation step: 7234
                  MF iterations:       11; SZ iterations:     11

Date: 1992/07/21; Stress:  1; Step:   295; Simulation step: 7235
                  MF iterations:       16; SZ iterations:     16

Date: 1992/07/22; Stress:  1; Step:   296; Simulation step: 7236
                  MF iterations:       14; SZ iterations:     14

Date: 1992/07/23; Stress:  1; Step:   297; Simulation step: 7237
                  MF iterations:       11; SZ iterations:     11

Date: 1992/07/24; Stress:  1; Step:   298; Simulation step: 7238
                  MF iterations:       10; SZ iterations:     10

Date: 1992/07/25; Stress:  1; Step:   299; Simulation step: 7239
                  MF iterations:       16; SZ iterations:     16

Date: 1992/07/26; Stress:  1; Step:   300; Simulation step: 7240
                  MF iterations:        8; SZ iterations:      8

Date: 1992/07/27; Stress:  1; Step:   301; Simulation step: 7241
                  MF iterations:       10; SZ iterations:     10

Date: 1992/07/28; Stress:  1; Step:   302; Simulation step: 7242
                  MF iterations:        7; SZ iterations:      7

Date: 1992/07/29; Stress:  1; Step:   303; Simulation step: 7243
                  MF iterations:        9; SZ iterations:      9

Date: 1992/07/30; Stress:  1; Step:   304; Simulation step: 7244
                  MF iterations:       12; SZ iterations:     12

Date: 1992/07/31; Stress:  1; Step:   305; Simulation step: 7245
                  MF iterations:       18; SZ iterations:     18

Date: 1992/08/01; Stress:  1; Step:   306; Simulation step: 7246
                  MF iterations:       14; SZ iterations:     14

Date: 1992/08/02; Stress:  1; Step:   307; Simulation step: 7247
                  MF iterations:       10; SZ iterations:     10

Date: 1992/08/03; Stress:  1; Step:   308; Simulation step: 7248
                  MF iterations:       21; SZ iterations:     21

Date: 1992/08/04; Stress:  1; Step:   309; Simulation step: 7249
                  MF iterations:       16; SZ iterations:     16

Date: 1992/08/05; Stress:  1; Step:   310; Simulation step: 7250
                  MF iterations:        7; SZ iterations:      7

Date: 1992/08/06; Stress:  1; Step:   311; Simulation step: 7251
                  MF iterations:       11; SZ iterations:     11

Date: 1992/08/07; Stress:  1; Step:   312; Simulation step: 7252
                  MF iterations:       14; SZ iterations:     14

Date: 1992/08/08; Stress:  1; Step:   313; Simulation step: 7253
                  MF iterations:       49; SZ iterations:     49

Date: 1992/08/09; Stress:  1; Step:   314; Simulation step: 7254
                  MF iterations:       23; SZ iterations:     23

Date: 1992/08/10; Stress:  1; Step:   315; Simulation step: 7255
                  MF iterations:       14; SZ iterations:     14

Date: 1992/08/11; Stress:  1; Step:   316; Simulation step: 7256
                  MF iterations:       10; SZ iterations:     10

Date: 1992/08/12; Stress:  1; Step:   317; Simulation step: 7257
                  MF iterations:       18; SZ iterations:     18

Date: 1992/08/13; Stress:  1; Step:   318; Simulation step: 7258
                  MF iterations:       10; SZ iterations:     10

Date: 1992/08/14; Stress:  1; Step:   319; Simulation step: 7259
                  MF iterations:       22; SZ iterations:     22

Date: 1992/08/15; Stress:  1; Step:   320; Simulation step: 7260
                  MF iterations:       20; SZ iterations:     20

Date: 1992/08/16; Stress:  1; Step:   321; Simulation step: 7261
                  MF iterations:       14; SZ iterations:     14

Date: 1992/08/17; Stress:  1; Step:   322; Simulation step: 7262
                  MF iterations:       10; SZ iterations:     10

Date: 1992/08/18; Stress:  1; Step:   323; Simulation step: 7263
                  MF iterations:       13; SZ iterations:     13

Date: 1992/08/19; Stress:  1; Step:   324; Simulation step: 7264
                  MF iterations:        8; SZ iterations:      8

Date: 1992/08/20; Stress:  1; Step:   325; Simulation step: 7265
                  MF iterations:        9; SZ iterations:      9

Date: 1992/08/21; Stress:  1; Step:   326; Simulation step: 7266
                  MF iterations:       10; SZ iterations:     10

Date: 1992/08/22; Stress:  1; Step:   327; Simulation step: 7267
                  MF iterations:       20; SZ iterations:     20

Date: 1992/08/23; Stress:  1; Step:   328; Simulation step: 7268
                  MF iterations:       44; SZ iterations:     44

Date: 1992/08/24; Stress:  1; Step:   329; Simulation step: 7269
                  MF iterations:        7; SZ iterations:      7

Date: 1992/08/25; Stress:  1; Step:   330; Simulation step: 7270
                  MF iterations:       11; SZ iterations:     11

Date: 1992/08/26; Stress:  1; Step:   331; Simulation step: 7271
                  MF iterations:        9; SZ iterations:      9

Date: 1992/08/27; Stress:  1; Step:   332; Simulation step: 7272
                  MF iterations:        9; SZ iterations:      9

Date: 1992/08/28; Stress:  1; Step:   333; Simulation step: 7273
                  MF iterations:        7; SZ iterations:      7

Date: 1992/08/29; Stress:  1; Step:   334; Simulation step: 7274
                  MF iterations:        5; SZ iterations:      5

Date: 1992/08/30; Stress:  1; Step:   335; Simulation step: 7275
                  MF iterations:        5; SZ iterations:      5

Date: 1992/08/31; Stress:  1; Step:   336; Simulation step: 7276
                  MF iterations:        5; SZ iterations:      5

Date: 1992/09/01; Stress:  1; Step:   337; Simulation step: 7277
                  MF iterations:        8; SZ iterations:      8

Date: 1992/09/02; Stress:  1; Step:   338; Simulation step: 7278
                  MF iterations:        6; SZ iterations:      6

Date: 1992/09/03; Stress:  1; Step:   339; Simulation step: 7279
                  MF iterations:        7; SZ iterations:      7

Date: 1992/09/04; Stress:  1; Step:   340; Simulation step: 7280
                  MF iterations:       19; SZ iterations:     19

Date: 1992/09/05; Stress:  1; Step:   341; Simulation step: 7281
                  MF iterations:       19; SZ iterations:     19

Date: 1992/09/06; Stress:  1; Step:   342; Simulation step: 7282
                  MF iterations:        7; SZ iterations:      7

Date: 1992/09/07; Stress:  1; Step:   343; Simulation step: 7283
                  MF iterations:        7; SZ iterations:      7

Date: 1992/09/08; Stress:  1; Step:   344; Simulation step: 7284
                  MF iterations:        5; SZ iterations:      5

Date: 1992/09/09; Stress:  1; Step:   345; Simulation step: 7285
                  MF iterations:        5; SZ iterations:      5

Date: 1992/09/10; Stress:  1; Step:   346; Simulation step: 7286
                  MF iterations:        7; SZ iterations:      7

Date: 1992/09/11; Stress:  1; Step:   347; Simulation step: 7287
                  MF iterations:        5; SZ iterations:      5

Date: 1992/09/12; Stress:  1; Step:   348; Simulation step: 7288
                  MF iterations:       12; SZ iterations:     12

Date: 1992/09/13; Stress:  1; Step:   349; Simulation step: 7289
                  MF iterations:       13; SZ iterations:     13

Date: 1992/09/14; Stress:  1; Step:   350; Simulation step: 7290
                  MF iterations:        3; SZ iterations:      3

Date: 1992/09/15; Stress:  1; Step:   351; Simulation step: 7291
                  MF iterations:        9; SZ iterations:      9

Date: 1992/09/16; Stress:  1; Step:   352; Simulation step: 7292
                  MF iterations:        5; SZ iterations:      5

Date: 1992/09/17; Stress:  1; Step:   353; Simulation step: 7293
                  MF iterations:        8; SZ iterations:      8

Date: 1992/09/18; Stress:  1; Step:   354; Simulation step: 7294
                  MF iterations:        7; SZ iterations:      7

Date: 1992/09/19; Stress:  1; Step:   355; Simulation step: 7295
                  MF iterations:        3; SZ iterations:      3

Date: 1992/09/20; Stress:  1; Step:   356; Simulation step: 7296
                  MF iterations:        5; SZ iterations:      5

Date: 1992/09/21; Stress:  1; Step:   357; Simulation step: 7297
                  MF iterations:        9; SZ iterations:      9

Date: 1992/09/22; Stress:  1; Step:   358; Simulation step: 7298
                  MF iterations:        6; SZ iterations:      6

Date: 1992/09/23; Stress:  1; Step:   359; Simulation step: 7299
                  MF iterations:        7; SZ iterations:      7

Date: 1992/09/24; Stress:  1; Step:   360; Simulation step: 7300
                  MF iterations:        9; SZ iterations:      9

Date: 1992/09/25; Stress:  1; Step:   361; Simulation step: 7301
                  MF iterations:       10; SZ iterations:     10

Date: 1992/09/26; Stress:  1; Step:   362; Simulation step: 7302
                  MF iterations:       10; SZ iterations:     10

Date: 1992/09/27; Stress:  1; Step:   363; Simulation step: 7303
                  MF iterations:       30; SZ iterations:     30

Date: 1992/09/28; Stress:  1; Step:   364; Simulation step: 7304
                  MF iterations:       16; SZ iterations:     16

Date: 1992/09/29; Stress:  1; Step:   365; Simulation step: 7305
                  MF iterations:        4; SZ iterations:      4

Date: 1992/09/30; Stress:  1; Step:   366; Simulation step: 7306
                  MF iterations:       37; SZ iterations:     37

Date: 1992/10/01; Stress:  1; Step:   367; Simulation step: 7307
                  MF iterations:       12; SZ iterations:     12

Date: 1992/10/02; Stress:  1; Step:   368; Simulation step: 7308
                  MF iterations:       24; SZ iterations:     24

Date: 1992/10/03; Stress:  1; Step:   369; Simulation step: 7309
                  MF iterations:       13; SZ iterations:     13

Date: 1992/10/04; Stress:  1; Step:   370; Simulation step: 7310
                  MF iterations:       15; SZ iterations:     15

Date: 1992/10/05; Stress:  1; Step:   371; Simulation step: 7311
                  MF iterations:       16; SZ iterations:     16

Date: 1992/10/06; Stress:  1; Step:   372; Simulation step: 7312
                  MF iterations:       52; SZ iterations:     52

Date: 1992/10/07; Stress:  1; Step:   373; Simulation step: 7313
                  MF iterations:       14; SZ iterations:     14

Date: 1992/10/08; Stress:  1; Step:   374; Simulation step: 7314
                  MF iterations:       15; SZ iterations:     15

Date: 1992/10/09; Stress:  1; Step:   375; Simulation step: 7315
                  MF iterations:        8; SZ iterations:      8

Date: 1992/10/10; Stress:  1; Step:   376; Simulation step: 7316
                  MF iterations:       13; SZ iterations:     13

Date: 1992/10/11; Stress:  1; Step:   377; Simulation step: 7317
                  MF iterations:        3; SZ iterations:      3

Date: 1992/10/12; Stress:  1; Step:   378; Simulation step: 7318
                  MF iterations:       32; SZ iterations:     32

Date: 1992/10/13; Stress:  1; Step:   379; Simulation step: 7319
                  MF iterations:        5; SZ iterations:      5

Date: 1992/10/14; Stress:  1; Step:   380; Simulation step: 7320
                  MF iterations:        7; SZ iterations:      7

Date: 1992/10/15; Stress:  1; Step:   381; Simulation step: 7321
                  MF iterations:        3; SZ iterations:      3

Date: 1992/10/16; Stress:  1; Step:   382; Simulation step: 7322
                  MF iterations:       14; SZ iterations:     14

Date: 1992/10/17; Stress:  1; Step:   383; Simulation step: 7323
                  MF iterations:        7; SZ iterations:      7

Date: 1992/10/18; Stress:  1; Step:   384; Simulation step: 7324
                  MF iterations:       16; SZ iterations:     16

Date: 1992/10/19; Stress:  1; Step:   385; Simulation step: 7325
                  MF iterations:       10; SZ iterations:     10

Date: 1992/10/20; Stress:  1; Step:   386; Simulation step: 7326
                  MF iterations:        3; SZ iterations:      3

Date: 1992/10/21; Stress:  1; Step:   387; Simulation step: 7327
                  MF iterations:       17; SZ iterations:     17

Date: 1992/10/22; Stress:  1; Step:   388; Simulation step: 7328
                  MF iterations:       88; SZ iterations:     88

Date: 1992/10/23; Stress:  1; Step:   389; Simulation step: 7329
                  MF iterations:       30; SZ iterations:     30

Date: 1992/10/24; Stress:  1; Step:   390; Simulation step: 7330
                  MF iterations:       36; SZ iterations:     36

Date: 1992/10/25; Stress:  1; Step:   391; Simulation step: 7331
                  MF iterations:        3; SZ iterations:      3

Date: 1992/10/26; Stress:  1; Step:   392; Simulation step: 7332
                  MF iterations:        5; SZ iterations:      5

Date: 1992/10/27; Stress:  1; Step:   393; Simulation step: 7333
                  MF iterations:        8; SZ iterations:      8

Date: 1992/10/28; Stress:  1; Step:   394; Simulation step: 7334
                  MF iterations:        4; SZ iterations:      4

Date: 1992/10/29; Stress:  1; Step:   395; Simulation step: 7335
                  MF iterations:        8; SZ iterations:      8

Date: 1992/10/30; Stress:  1; Step:   396; Simulation step: 7336
                  MF iterations:       26; SZ iterations:     26

Date: 1992/10/31; Stress:  1; Step:   397; Simulation step: 7337
                  MF iterations:        5; SZ iterations:      5

Date: 1992/11/01; Stress:  1; Step:   398; Simulation step: 7338
                  MF iterations:       23; SZ iterations:     23

Date: 1992/11/02; Stress:  1; Step:   399; Simulation step: 7339
                  MF iterations:       66; SZ iterations:     66

Date: 1992/11/03; Stress:  1; Step:   400; Simulation step: 7340
                  MF iterations:       51; SZ iterations:     51

Date: 1992/11/04; Stress:  1; Step:   401; Simulation step: 7341
                  MF iterations:       10; SZ iterations:     10

Date: 1992/11/05; Stress:  1; Step:   402; Simulation step: 7342
                  MF iterations:       11; SZ iterations:     11

Date: 1992/11/06; Stress:  1; Step:   403; Simulation step: 7343
                  MF iterations:       10; SZ iterations:     10

Date: 1992/11/07; Stress:  1; Step:   404; Simulation step: 7344
                  MF iterations:        7; SZ iterations:      7

Date: 1992/11/08; Stress:  1; Step:   405; Simulation step: 7345
                  MF iterations:        3; SZ iterations:      3

Date: 1992/11/09; Stress:  1; Step:   406; Simulation step: 7346
                  MF iterations:        3; SZ iterations:      3

Date: 1992/11/10; Stress:  1; Step:   407; Simulation step: 7347
                  MF iterations:        3; SZ iterations:      3

Date: 1992/11/11; Stress:  1; Step:   408; Simulation step: 7348
                  MF iterations:        3; SZ iterations:      3

Date: 1992/11/12; Stress:  1; Step:   409; Simulation step: 7349
                  MF iterations:       15; SZ iterations:     15

Date: 1992/11/13; Stress:  1; Step:   410; Simulation step: 7350
                  MF iterations:       11; SZ iterations:     11

Date: 1992/11/14; Stress:  1; Step:   411; Simulation step: 7351
                  MF iterations:       15; SZ iterations:     15

Date: 1992/11/15; Stress:  1; Step:   412; Simulation step: 7352
                  MF iterations:        8; SZ iterations:      8

Date: 1992/11/16; Stress:  1; Step:   413; Simulation step: 7353
                  MF iterations:       10; SZ iterations:     10

Date: 1992/11/17; Stress:  1; Step:   414; Simulation step: 7354
                  MF iterations:        4; SZ iterations:      4

Date: 1992/11/18; Stress:  1; Step:   415; Simulation step: 7355
                  MF iterations:        3; SZ iterations:      3

Date: 1992/11/19; Stress:  1; Step:   416; Simulation step: 7356
                  MF iterations:        3; SZ iterations:      3

Date: 1992/11/20; Stress:  1; Step:   417; Simulation step: 7357
                  MF iterations:        3; SZ iterations:      3

Date: 1992/11/21; Stress:  1; Step:   418; Simulation step: 7358
                  MF iterations:        4; SZ iterations:      4

Date: 1992/11/22; Stress:  1; Step:   419; Simulation step: 7359
                  MF iterations:        3; SZ iterations:      3

Date: 1992/11/23; Stress:  1; Step:   420; Simulation step: 7360
                  MF iterations:        3; SZ iterations:      3

Date: 1992/11/24; Stress:  1; Step:   421; Simulation step: 7361
                  MF iterations:        6; SZ iterations:      6

Date: 1992/11/25; Stress:  1; Step:   422; Simulation step: 7362
                  MF iterations:        4; SZ iterations:      4

Date: 1992/11/26; Stress:  1; Step:   423; Simulation step: 7363
                  MF iterations:        3; SZ iterations:      3

Date: 1992/11/27; Stress:  1; Step:   424; Simulation step: 7364
                  MF iterations:        3; SZ iterations:      3

Date: 1992/11/28; Stress:  1; Step:   425; Simulation step: 7365
                  MF iterations:        4; SZ iterations:      4

Date: 1992/11/29; Stress:  1; Step:   426; Simulation step: 7366
                  MF iterations:       16; SZ iterations:     16

Date: 1992/11/30; Stress:  1; Step:   427; Simulation step: 7367
                  MF iterations:        7; SZ iterations:      7

Date: 1992/12/01; Stress:  1; Step:   428; Simulation step: 7368
                  MF iterations:       65; SZ iterations:     65

Date: 1992/12/02; Stress:  1; Step:   429; Simulation step: 7369
                  MF iterations:        5; SZ iterations:      5

Date: 1992/12/03; Stress:  1; Step:   430; Simulation step: 7370
                  MF iterations:       22; SZ iterations:     22

Date: 1992/12/04; Stress:  1; Step:   431; Simulation step: 7371
                  MF iterations:       25; SZ iterations:     25

Date: 1992/12/05; Stress:  1; Step:   432; Simulation step: 7372
                  MF iterations:        3; SZ iterations:      3

Date: 1992/12/06; Stress:  1; Step:   433; Simulation step: 7373
                  MF iterations:       12; SZ iterations:     12

Date: 1992/12/07; Stress:  1; Step:   434; Simulation step: 7374
                  MF iterations:        5; SZ iterations:      5

Date: 1992/12/08; Stress:  1; Step:   435; Simulation step: 7375
                  MF iterations:        9; SZ iterations:      9

Date: 1992/12/09; Stress:  1; Step:   436; Simulation step: 7376
                  MF iterations:        4; SZ iterations:      4

Date: 1992/12/10; Stress:  1; Step:   437; Simulation step: 7377
                  MF iterations:        8; SZ iterations:      8

Date: 1992/12/11; Stress:  1; Step:   438; Simulation step: 7378
                  MF iterations:       17; SZ iterations:     17

Date: 1992/12/12; Stress:  1; Step:   439; Simulation step: 7379
                  MF iterations:       24; SZ iterations:     24

Date: 1992/12/13; Stress:  1; Step:   440; Simulation step: 7380
                  MF iterations:        4; SZ iterations:      4

Date: 1992/12/14; Stress:  1; Step:   441; Simulation step: 7381
                  MF iterations:        7; SZ iterations:      7

Date: 1992/12/15; Stress:  1; Step:   442; Simulation step: 7382
                  MF iterations:        4; SZ iterations:      4

Date: 1992/12/16; Stress:  1; Step:   443; Simulation step: 7383
                  MF iterations:        4; SZ iterations:      4

Date: 1992/12/17; Stress:  1; Step:   444; Simulation step: 7384
                  MF iterations:       11; SZ iterations:     11

Date: 1992/12/18; Stress:  1; Step:   445; Simulation step: 7385
                  MF iterations:        3; SZ iterations:      3

Date: 1992/12/19; Stress:  1; Step:   446; Simulation step: 7386
                  MF iterations:        4; SZ iterations:      4

Date: 1992/12/20; Stress:  1; Step:   447; Simulation step: 7387
                  MF iterations:       11; SZ iterations:     11

Date: 1992/12/21; Stress:  1; Step:   448; Simulation step: 7388
                  MF iterations:        6; SZ iterations:      6

Date: 1992/12/22; Stress:  1; Step:   449; Simulation step: 7389
                  MF iterations:        5; SZ iterations:      5

Date: 1992/12/23; Stress:  1; Step:   450; Simulation step: 7390
                  MF iterations:        4; SZ iterations:      4

Date: 1992/12/24; Stress:  1; Step:   451; Simulation step: 7391
                  MF iterations:        3; SZ iterations:      3

Date: 1992/12/25; Stress:  1; Step:   452; Simulation step: 7392
                  MF iterations:        3; SZ iterations:      3

Date: 1992/12/26; Stress:  1; Step:   453; Simulation step: 7393
                  MF iterations:        4; SZ iterations:      4

Date: 1992/12/27; Stress:  1; Step:   454; Simulation step: 7394
                  MF iterations:        3; SZ iterations:      3

Date: 1992/12/28; Stress:  1; Step:   455; Simulation step: 7395
                  MF iterations:        3; SZ iterations:      3

Date: 1992/12/29; Stress:  1; Step:   456; Simulation step: 7396
                  MF iterations:       68; SZ iterations:     68

Date: 1992/12/30; Stress:  1; Step:   457; Simulation step: 7397
                  MF iterations:       15; SZ iterations:     15

Date: 1992/12/31; Stress:  1; Step:   458; Simulation step: 7398
                  MF iterations:        5; SZ iterations:      5

Date: 1993/01/01; Stress:  1; Step:   459; Simulation step: 7399
                  MF iterations:       18; SZ iterations:     18

Date: 1993/01/02; Stress:  1; Step:   460; Simulation step: 7400
                  MF iterations:        4; SZ iterations:      4

Date: 1993/01/03; Stress:  1; Step:   461; Simulation step: 7401
                  MF iterations:        9; SZ iterations:      9

Date: 1993/01/04; Stress:  1; Step:   462; Simulation step: 7402
                  MF iterations:        8; SZ iterations:      8

Date: 1993/01/05; Stress:  1; Step:   463; Simulation step: 7403
                  MF iterations:        7; SZ iterations:      7

Date: 1993/01/06; Stress:  1; Step:   464; Simulation step: 7404
                  MF iterations:        5; SZ iterations:      5

Date: 1993/01/07; Stress:  1; Step:   465; Simulation step: 7405
                  MF iterations:       15; SZ iterations:     15

Date: 1993/01/08; Stress:  1; Step:   466; Simulation step: 7406
                  MF iterations:       23; SZ iterations:     23

Date: 1993/01/09; Stress:  1; Step:   467; Simulation step: 7407
                  MF iterations:        5; SZ iterations:      5

Date: 1993/01/10; Stress:  1; Step:   468; Simulation step: 7408
                  MF iterations:        8; SZ iterations:      8

Date: 1993/01/11; Stress:  1; Step:   469; Simulation step: 7409
                  MF iterations:       16; SZ iterations:     16

Date: 1993/01/12; Stress:  1; Step:   470; Simulation step: 7410
                  MF iterations:        5; SZ iterations:      5

***TIME STEP FAILED TO CONVERGE - Date: 1993/01/13 number:     2

Date: 1993/01/13; Stress:  1; Step:   471; Simulation step: 7411
                  MF iterations:      200; SZ iterations:    200

Date: 1993/01/14; Stress:  1; Step:   472; Simulation step: 7412
                  MF iterations:       16; SZ iterations:     16

Date: 1993/01/15; Stress:  1; Step:   473; Simulation step: 7413
                  MF iterations:      101; SZ iterations:    101

Date: 1993/01/16; Stress:  1; Step:   474; Simulation step: 7414
                  MF iterations:       29; SZ iterations:     29

Date: 1993/01/17; Stress:  1; Step:   475; Simulation step: 7415
                  MF iterations:       10; SZ iterations:     10

Date: 1993/01/18; Stress:  1; Step:   476; Simulation step: 7416
                  MF iterations:      113; SZ iterations:    113

Date: 1993/01/19; Stress:  1; Step:   477; Simulation step: 7417
                  MF iterations:      103; SZ iterations:    103

Date: 1993/01/20; Stress:  1; Step:   478; Simulation step: 7418
                  MF iterations:        8; SZ iterations:      8

Date: 1993/01/21; Stress:  1; Step:   479; Simulation step: 7419
                  MF iterations:        4; SZ iterations:      4

Date: 1993/01/22; Stress:  1; Step:   480; Simulation step: 7420
                  MF iterations:        4; SZ iterations:      4

Date: 1993/01/23; Stress:  1; Step:   481; Simulation step: 7421
                  MF iterations:       22; SZ iterations:     22

Date: 1993/01/24; Stress:  1; Step:   482; Simulation step: 7422
                  MF iterations:        4; SZ iterations:      4

Date: 1993/01/25; Stress:  1; Step:   483; Simulation step: 7423
                  MF iterations:        4; SZ iterations:      4

Date: 1993/01/26; Stress:  1; Step:   484; Simulation step: 7424
                  MF iterations:        4; SZ iterations:      4

Date: 1993/01/27; Stress:  1; Step:   485; Simulation step: 7425
                  MF iterations:        4; SZ iterations:      4

Date: 1993/01/28; Stress:  1; Step:   486; Simulation step: 7426
                  MF iterations:        4; SZ iterations:      4

Date: 1993/01/29; Stress:  1; Step:   487; Simulation step: 7427
                  MF iterations:        4; SZ iterations:      4

Date: 1993/01/30; Stress:  1; Step:   488; Simulation step: 7428
                  MF iterations:        4; SZ iterations:      4

Date: 1993/01/31; Stress:  1; Step:   489; Simulation step: 7429
                  MF iterations:        4; SZ iterations:      4

Date: 1993/02/01; Stress:  1; Step:   490; Simulation step: 7430
                  MF iterations:        4; SZ iterations:      4

Date: 1993/02/02; Stress:  1; Step:   491; Simulation step: 7431
                  MF iterations:        4; SZ iterations:      4

Date: 1993/02/03; Stress:  1; Step:   492; Simulation step: 7432
                  MF iterations:        4; SZ iterations:      4

Date: 1993/02/04; Stress:  1; Step:   493; Simulation step: 7433
                  MF iterations:        4; SZ iterations:      4

Date: 1993/02/05; Stress:  1; Step:   494; Simulation step: 7434
                  MF iterations:        4; SZ iterations:      4

Date: 1993/02/06; Stress:  1; Step:   495; Simulation step: 7435
                  MF iterations:        4; SZ iterations:      4

Date: 1993/02/07; Stress:  1; Step:   496; Simulation step: 7436
                  MF iterations:        4; SZ iterations:      4

Date: 1993/02/08; Stress:  1; Step:   497; Simulation step: 7437
                  MF iterations:       12; SZ iterations:     12

Date: 1993/02/09; Stress:  1; Step:   498; Simulation step: 7438
                  MF iterations:        4; SZ iterations:      4

Date: 1993/02/10; Stress:  1; Step:   499; Simulation step: 7439
                  MF iterations:       21; SZ iterations:     21

Date: 1993/02/11; Stress:  1; Step:   500; Simulation step: 7440
                  MF iterations:       18; SZ iterations:     18

Date: 1993/02/12; Stress:  1; Step:   501; Simulation step: 7441
                  MF iterations:        4; SZ iterations:      4

Date: 1993/02/13; Stress:  1; Step:   502; Simulation step: 7442
                  MF iterations:        8; SZ iterations:      8

Date: 1993/02/14; Stress:  1; Step:   503; Simulation step: 7443
                  MF iterations:        8; SZ iterations:      8

Date: 1993/02/15; Stress:  1; Step:   504; Simulation step: 7444
                  MF iterations:        4; SZ iterations:      4

Date: 1993/02/16; Stress:  1; Step:   505; Simulation step: 7445
                  MF iterations:        4; SZ iterations:      4

Date: 1993/02/17; Stress:  1; Step:   506; Simulation step: 7446
                  MF iterations:        4; SZ iterations:      4

Date: 1993/02/18; Stress:  1; Step:   507; Simulation step: 7447
                  MF iterations:        4; SZ iterations:      4

Date: 1993/02/19; Stress:  1; Step:   508; Simulation step: 7448
                  MF iterations:      141; SZ iterations:    141

Date: 1993/02/20; Stress:  1; Step:   509; Simulation step: 7449
                  MF iterations:      101; SZ iterations:    101

Date: 1993/02/21; Stress:  1; Step:   510; Simulation step: 7450
                  MF iterations:        4; SZ iterations:      4

Date: 1993/02/22; Stress:  1; Step:   511; Simulation step: 7451
                  MF iterations:       11; SZ iterations:     11

Date: 1993/02/23; Stress:  1; Step:   512; Simulation step: 7452
                  MF iterations:       28; SZ iterations:     28

Date: 1993/02/24; Stress:  1; Step:   513; Simulation step: 7453
                  MF iterations:       53; SZ iterations:     53

Date: 1993/02/25; Stress:  1; Step:   514; Simulation step: 7454
                  MF iterations:       12; SZ iterations:     12

Date: 1993/02/26; Stress:  1; Step:   515; Simulation step: 7455
                  MF iterations:       21; SZ iterations:     21

Date: 1993/02/27; Stress:  1; Step:   516; Simulation step: 7456
                  MF iterations:       19; SZ iterations:     19

Date: 1993/02/28; Stress:  1; Step:   517; Simulation step: 7457
                  MF iterations:       24; SZ iterations:     24

Date: 1993/03/01; Stress:  1; Step:   518; Simulation step: 7458
                  MF iterations:       57; SZ iterations:     57

Date: 1993/03/02; Stress:  1; Step:   519; Simulation step: 7459
                  MF iterations:        4; SZ iterations:      4

Date: 1993/03/03; Stress:  1; Step:   520; Simulation step: 7460
                  MF iterations:        4; SZ iterations:      4

Date: 1993/03/04; Stress:  1; Step:   521; Simulation step: 7461
                  MF iterations:        5; SZ iterations:      5

Date: 1993/03/05; Stress:  1; Step:   522; Simulation step: 7462
                  MF iterations:        7; SZ iterations:      7

Date: 1993/03/06; Stress:  1; Step:   523; Simulation step: 7463
                  MF iterations:        4; SZ iterations:      4

Date: 1993/03/07; Stress:  1; Step:   524; Simulation step: 7464
                  MF iterations:        9; SZ iterations:      9

Date: 1993/03/08; Stress:  1; Step:   525; Simulation step: 7465
                  MF iterations:        4; SZ iterations:      4

Date: 1993/03/09; Stress:  1; Step:   526; Simulation step: 7466
                  MF iterations:        4; SZ iterations:      4

Date: 1993/03/10; Stress:  1; Step:   527; Simulation step: 7467
                  MF iterations:        4; SZ iterations:      4

Date: 1993/03/11; Stress:  1; Step:   528; Simulation step: 7468
                  MF iterations:        5; SZ iterations:      5

Date: 1993/03/12; Stress:  1; Step:   529; Simulation step: 7469
                  MF iterations:        4; SZ iterations:      4

Date: 1993/03/13; Stress:  1; Step:   530; Simulation step: 7470
                  MF iterations:        7; SZ iterations:      7

Date: 1993/03/14; Stress:  1; Step:   531; Simulation step: 7471
                  MF iterations:        6; SZ iterations:      6

Date: 1993/03/15; Stress:  1; Step:   532; Simulation step: 7472
                  MF iterations:        6; SZ iterations:      6

Date: 1993/03/16; Stress:  1; Step:   533; Simulation step: 7473
                  MF iterations:        8; SZ iterations:      8

Date: 1993/03/17; Stress:  1; Step:   534; Simulation step: 7474
                  MF iterations:        9; SZ iterations:      9

Date: 1993/03/18; Stress:  1; Step:   535; Simulation step: 7475
                  MF iterations:        7; SZ iterations:      7

Date: 1993/03/19; Stress:  1; Step:   536; Simulation step: 7476
                  MF iterations:       11; SZ iterations:     11

Date: 1993/03/20; Stress:  1; Step:   537; Simulation step: 7477
                  MF iterations:       12; SZ iterations:     12

Date: 1993/03/21; Stress:  1; Step:   538; Simulation step: 7478
                  MF iterations:       16; SZ iterations:     16

Date: 1993/03/22; Stress:  1; Step:   539; Simulation step: 7479
                  MF iterations:       14; SZ iterations:     14

Date: 1993/03/23; Stress:  1; Step:   540; Simulation step: 7480
                  MF iterations:       12; SZ iterations:     12

Date: 1993/03/24; Stress:  1; Step:   541; Simulation step: 7481
                  MF iterations:        5; SZ iterations:      5

Date: 1993/03/25; Stress:  1; Step:   542; Simulation step: 7482
                  MF iterations:        4; SZ iterations:      4

Date: 1993/03/26; Stress:  1; Step:   543; Simulation step: 7483
                  MF iterations:       12; SZ iterations:     12

Date: 1993/03/27; Stress:  1; Step:   544; Simulation step: 7484
                  MF iterations:        4; SZ iterations:      4

Date: 1993/03/28; Stress:  1; Step:   545; Simulation step: 7485
                  MF iterations:       11; SZ iterations:     11

Date: 1993/03/29; Stress:  1; Step:   546; Simulation step: 7486
                  MF iterations:        4; SZ iterations:      4

Date: 1993/03/30; Stress:  1; Step:   547; Simulation step: 7487
                  MF iterations:        4; SZ iterations:      4

Date: 1993/03/31; Stress:  1; Step:   548; Simulation step: 7488
                  MF iterations:       18; SZ iterations:     18

Date: 1993/04/01; Stress:  1; Step:   549; Simulation step: 7489
                  MF iterations:        4; SZ iterations:      4

Date: 1993/04/02; Stress:  1; Step:   550; Simulation step: 7490
                  MF iterations:        4; SZ iterations:      4

Date: 1993/04/03; Stress:  1; Step:   551; Simulation step: 7491
                  MF iterations:       11; SZ iterations:     11

Date: 1993/04/04; Stress:  1; Step:   552; Simulation step: 7492
                  MF iterations:        6; SZ iterations:      6

Date: 1993/04/05; Stress:  1; Step:   553; Simulation step: 7493
                  MF iterations:       14; SZ iterations:     14

Date: 1993/04/06; Stress:  1; Step:   554; Simulation step: 7494
                  MF iterations:       14; SZ iterations:     14

Date: 1993/04/07; Stress:  1; Step:   555; Simulation step: 7495
                  MF iterations:       13; SZ iterations:     13

Date: 1993/04/08; Stress:  1; Step:   556; Simulation step: 7496
                  MF iterations:        4; SZ iterations:      4

Date: 1993/04/09; Stress:  1; Step:   557; Simulation step: 7497
                  MF iterations:        4; SZ iterations:      4

Date: 1993/04/10; Stress:  1; Step:   558; Simulation step: 7498
                  MF iterations:        4; SZ iterations:      4

Date: 1993/04/11; Stress:  1; Step:   559; Simulation step: 7499
                  MF iterations:        4; SZ iterations:      4

Date: 1993/04/12; Stress:  1; Step:   560; Simulation step: 7500
                  MF iterations:        4; SZ iterations:      4

Date: 1993/04/13; Stress:  1; Step:   561; Simulation step: 7501
                  MF iterations:        5; SZ iterations:      5

Date: 1993/04/14; Stress:  1; Step:   562; Simulation step: 7502
                  MF iterations:        7; SZ iterations:      7

Date: 1993/04/15; Stress:  1; Step:   563; Simulation step: 7503
                  MF iterations:        4; SZ iterations:      4

Date: 1993/04/16; Stress:  1; Step:   564; Simulation step: 7504
                  MF iterations:        4; SZ iterations:      4

Date: 1993/04/17; Stress:  1; Step:   565; Simulation step: 7505
                  MF iterations:        4; SZ iterations:      4

Date: 1993/04/18; Stress:  1; Step:   566; Simulation step: 7506
                  MF iterations:        6; SZ iterations:      6

Date: 1993/04/19; Stress:  1; Step:   567; Simulation step: 7507
                  MF iterations:        8; SZ iterations:      8

Date: 1993/04/20; Stress:  1; Step:   568; Simulation step: 7508
                  MF iterations:        7; SZ iterations:      7

Date: 1993/04/21; Stress:  1; Step:   569; Simulation step: 7509
                  MF iterations:        7; SZ iterations:      7

Date: 1993/04/22; Stress:  1; Step:   570; Simulation step: 7510
                  MF iterations:        4; SZ iterations:      4

[...]
                  MF iterations:        3; SZ iterations:      3

Date: 2015/05/15; Stress:  1; Step:  8628; Simulation step:15568
                  MF iterations:       11; SZ iterations:     11

Date: 2015/05/16; Stress:  1; Step:  8629; Simulation step:15569
                  MF iterations:       14; SZ iterations:     14

Date: 2015/05/17; Stress:  1; Step:  8630; Simulation step:15570
                  MF iterations:        9; SZ iterations:      9

Date: 2015/05/18; Stress:  1; Step:  8631; Simulation step:15571
                  MF iterations:       14; SZ iterations:     14

Date: 2015/05/19; Stress:  1; Step:  8632; Simulation step:15572
                  MF iterations:       11; SZ iterations:     11

Date: 2015/05/20; Stress:  1; Step:  8633; Simulation step:15573
                  MF iterations:       12; SZ iterations:     12

Date: 2015/05/21; Stress:  1; Step:  8634; Simulation step:15574
                  MF iterations:       13; SZ iterations:     13

Date: 2015/05/22; Stress:  1; Step:  8635; Simulation step:15575
                  MF iterations:       12; SZ iterations:     12

Date: 2015/05/23; Stress:  1; Step:  8636; Simulation step:15576
                  MF iterations:        7; SZ iterations:      7

Date: 2015/05/24; Stress:  1; Step:  8637; Simulation step:15577
                  MF iterations:        9; SZ iterations:      9

Date: 2015/05/25; Stress:  1; Step:  8638; Simulation step:15578
                  MF iterations:       10; SZ iterations:     10

Date: 2015/05/26; Stress:  1; Step:  8639; Simulation step:15579
                  MF iterations:       10; SZ iterations:     10

Date: 2015/05/27; Stress:  1; Step:  8640; Simulation step:15580
                  MF iterations:       10; SZ iterations:     10

Date: 2015/05/28; Stress:  1; Step:  8641; Simulation step:15581
                  MF iterations:       13; SZ iterations:     13

Date: 2015/05/29; Stress:  1; Step:  8642; Simulation step:15582
                  MF iterations:       13; SZ iterations:     13

Date: 2015/05/30; Stress:  1; Step:  8643; Simulation step:15583
                  MF iterations:       15; SZ iterations:     15

Date: 2015/05/31; Stress:  1; Step:  8644; Simulation step:15584
                  MF iterations:       11; SZ iterations:     11

Date: 2015/06/01; Stress:  1; Step:  8645; Simulation step:15585
                  MF iterations:       13; SZ iterations:     13

Date: 2015/06/02; Stress:  1; Step:  8646; Simulation step:15586
                  MF iterations:       12; SZ iterations:     12

Date: 2015/06/03; Stress:  1; Step:  8647; Simulation step:15587
                  MF iterations:       12; SZ iterations:     12

Date: 2015/06/04; Stress:  1; Step:  8648; Simulation step:15588
                  MF iterations:       58; SZ iterations:     58

Date: 2015/06/05; Stress:  1; Step:  8649; Simulation step:15589
                  MF iterations:       32; SZ iterations:     32

Date: 2015/06/06; Stress:  1; Step:  8650; Simulation step:15590
                  MF iterations:       40; SZ iterations:     40

Date: 2015/06/07; Stress:  1; Step:  8651; Simulation step:15591
                  MF iterations:       42; SZ iterations:     42

Date: 2015/06/08; Stress:  1; Step:  8652; Simulation step:15592
                  MF iterations:       73; SZ iterations:     73

Date: 2015/06/09; Stress:  1; Step:  8653; Simulation step:15593
                  MF iterations:       20; SZ iterations:     20

Date: 2015/06/10; Stress:  1; Step:  8654; Simulation step:15594
                  MF iterations:       16; SZ iterations:     16

Date: 2015/06/11; Stress:  1; Step:  8655; Simulation step:15595
                  MF iterations:       20; SZ iterations:     20

Date: 2015/06/12; Stress:  1; Step:  8656; Simulation step:15596
                  MF iterations:       25; SZ iterations:     25

Date: 2015/06/13; Stress:  1; Step:  8657; Simulation step:15597
                  MF iterations:       54; SZ iterations:     54

Date: 2015/06/14; Stress:  1; Step:  8658; Simulation step:15598
                  MF iterations:       19; SZ iterations:     19

Date: 2015/06/15; Stress:  1; Step:  8659; Simulation step:15599
                  MF iterations:       16; SZ iterations:     16

Date: 2015/06/16; Stress:  1; Step:  8660; Simulation step:15600
                  MF iterations:       29; SZ iterations:     29

Date: 2015/06/17; Stress:  1; Step:  8661; Simulation step:15601
                  MF iterations:       22; SZ iterations:     22

Date: 2015/06/18; Stress:  1; Step:  8662; Simulation step:15602
                  MF iterations:       46; SZ iterations:     46

Date: 2015/06/19; Stress:  1; Step:  8663; Simulation step:15603
                  MF iterations:       15; SZ iterations:     15

Date: 2015/06/20; Stress:  1; Step:  8664; Simulation step:15604
                  MF iterations:       17; SZ iterations:     17

Date: 2015/06/21; Stress:  1; Step:  8665; Simulation step:15605
                  MF iterations:       20; SZ iterations:     20

Date: 2015/06/22; Stress:  1; Step:  8666; Simulation step:15606
                  MF iterations:       14; SZ iterations:     14

Date: 2015/06/23; Stress:  1; Step:  8667; Simulation step:15607
                  MF iterations:       33; SZ iterations:     33

Date: 2015/06/24; Stress:  1; Step:  8668; Simulation step:15608
                  MF iterations:       11; SZ iterations:     11

Date: 2015/06/25; Stress:  1; Step:  8669; Simulation step:15609
                  MF iterations:       18; SZ iterations:     18

Date: 2015/06/26; Stress:  1; Step:  8670; Simulation step:15610
                  MF iterations:       51; SZ iterations:     51

Date: 2015/06/27; Stress:  1; Step:  8671; Simulation step:15611
                  MF iterations:       12; SZ iterations:     12

Date: 2015/06/28; Stress:  1; Step:  8672; Simulation step:15612
                  MF iterations:       13; SZ iterations:     13

Date: 2015/06/29; Stress:  1; Step:  8673; Simulation step:15613
                  MF iterations:       17; SZ iterations:     17

Date: 2015/06/30; Stress:  1; Step:  8674; Simulation step:15614
                  MF iterations:       20; SZ iterations:     20

Date: 2015/07/01; Stress:  1; Step:  8675; Simulation step:15615
                  MF iterations:       57; SZ iterations:     57

Date: 2015/07/02; Stress:  1; Step:  8676; Simulation step:15616
                  MF iterations:      144; SZ iterations:    144

Date: 2015/07/03; Stress:  1; Step:  8677; Simulation step:15617
                  MF iterations:        8; SZ iterations:      8

Date: 2015/07/04; Stress:  1; Step:  8678; Simulation step:15618
                  MF iterations:        6; SZ iterations:      6

Date: 2015/07/05; Stress:  1; Step:  8679; Simulation step:15619
                  MF iterations:        3; SZ iterations:      3

Date: 2015/07/06; Stress:  1; Step:  8680; Simulation step:15620
                  MF iterations:        3; SZ iterations:      3

Date: 2015/07/07; Stress:  1; Step:  8681; Simulation step:15621
                  MF iterations:       13; SZ iterations:     13

Date: 2015/07/08; Stress:  1; Step:  8682; Simulation step:15622
                  MF iterations:       29; SZ iterations:     29

Date: 2015/07/09; Stress:  1; Step:  8683; Simulation step:15623
                  MF iterations:        3; SZ iterations:      3

Date: 2015/07/10; Stress:  1; Step:  8684; Simulation step:15624
                  MF iterations:       29; SZ iterations:     29

Date: 2015/07/11; Stress:  1; Step:  8685; Simulation step:15625
                  MF iterations:        4; SZ iterations:      4

Date: 2015/07/12; Stress:  1; Step:  8686; Simulation step:15626
                  MF iterations:        8; SZ iterations:      8

Date: 2015/07/13; Stress:  1; Step:  8687; Simulation step:15627
                  MF iterations:        9; SZ iterations:      9

Date: 2015/07/14; Stress:  1; Step:  8688; Simulation step:15628
                  MF iterations:        5; SZ iterations:      5

Date: 2015/07/15; Stress:  1; Step:  8689; Simulation step:15629
                  MF iterations:        3; SZ iterations:      3

Date: 2015/07/16; Stress:  1; Step:  8690; Simulation step:15630
                  MF iterations:        8; SZ iterations:      8

Date: 2015/07/17; Stress:  1; Step:  8691; Simulation step:15631
                  MF iterations:       32; SZ iterations:     32

Date: 2015/07/18; Stress:  1; Step:  8692; Simulation step:15632
                  MF iterations:       32; SZ iterations:     32

Date: 2015/07/19; Stress:  1; Step:  8693; Simulation step:15633
                  MF iterations:      151; SZ iterations:    151

Date: 2015/07/20; Stress:  1; Step:  8694; Simulation step:15634
                  MF iterations:       12; SZ iterations:     12

Date: 2015/07/21; Stress:  1; Step:  8695; Simulation step:15635
                  MF iterations:       80; SZ iterations:     80

Date: 2015/07/22; Stress:  1; Step:  8696; Simulation step:15636
                  MF iterations:        7; SZ iterations:      7

Date: 2015/07/23; Stress:  1; Step:  8697; Simulation step:15637
                  MF iterations:        4; SZ iterations:      4

Date: 2015/07/24; Stress:  1; Step:  8698; Simulation step:15638
                  MF iterations:       15; SZ iterations:     15

Date: 2015/07/25; Stress:  1; Step:  8699; Simulation step:15639
                  MF iterations:        6; SZ iterations:      6

Date: 2015/07/26; Stress:  1; Step:  8700; Simulation step:15640
                  MF iterations:       20; SZ iterations:     20

Date: 2015/07/27; Stress:  1; Step:  8701; Simulation step:15641
                  MF iterations:       15; SZ iterations:     15

Date: 2015/07/28; Stress:  1; Step:  8702; Simulation step:15642
                  MF iterations:       23; SZ iterations:     23

Date: 2015/07/29; Stress:  1; Step:  8703; Simulation step:15643
                  MF iterations:      137; SZ iterations:    137

Date: 2015/07/30; Stress:  1; Step:  8704; Simulation step:15644
                  MF iterations:        3; SZ iterations:      3

Date: 2015/07/31; Stress:  1; Step:  8705; Simulation step:15645
                  MF iterations:       21; SZ iterations:     21

Date: 2015/08/01; Stress:  1; Step:  8706; Simulation step:15646
                  MF iterations:        7; SZ iterations:      7

Date: 2015/08/02; Stress:  1; Step:  8707; Simulation step:15647
                  MF iterations:      125; SZ iterations:    125

Date: 2015/08/03; Stress:  1; Step:  8708; Simulation step:15648
                  MF iterations:        7; SZ iterations:      7

Date: 2015/08/04; Stress:  1; Step:  8709; Simulation step:15649
                  MF iterations:        6; SZ iterations:      6

Date: 2015/08/05; Stress:  1; Step:  8710; Simulation step:15650
                  MF iterations:       10; SZ iterations:     10

Date: 2015/08/06; Stress:  1; Step:  8711; Simulation step:15651
                  MF iterations:        9; SZ iterations:      9

Date: 2015/08/07; Stress:  1; Step:  8712; Simulation step:15652
                  MF iterations:       93; SZ iterations:     93

Date: 2015/08/08; Stress:  1; Step:  8713; Simulation step:15653
                  MF iterations:        9; SZ iterations:      9

Date: 2015/08/09; Stress:  1; Step:  8714; Simulation step:15654
                  MF iterations:       15; SZ iterations:     15

Date: 2015/08/10; Stress:  1; Step:  8715; Simulation step:15655
                  MF iterations:       12; SZ iterations:     12

Date: 2015/08/11; Stress:  1; Step:  8716; Simulation step:15656
                  MF iterations:       15; SZ iterations:     15

Date: 2015/08/12; Stress:  1; Step:  8717; Simulation step:15657
                  MF iterations:       14; SZ iterations:     14

Date: 2015/08/13; Stress:  1; Step:  8718; Simulation step:15658
                  MF iterations:       24; SZ iterations:     24

Date: 2015/08/14; Stress:  1; Step:  8719; Simulation step:15659
                  MF iterations:       65; SZ iterations:     65

Date: 2015/08/15; Stress:  1; Step:  8720; Simulation step:15660
                  MF iterations:       20; SZ iterations:     20

Date: 2015/08/16; Stress:  1; Step:  8721; Simulation step:15661
                  MF iterations:      159; SZ iterations:    159

Date: 2015/08/17; Stress:  1; Step:  8722; Simulation step:15662
                  MF iterations:      149; SZ iterations:    149

Date: 2015/08/18; Stress:  1; Step:  8723; Simulation step:15663
                  MF iterations:       14; SZ iterations:     14

Date: 2015/08/19; Stress:  1; Step:  8724; Simulation step:15664
                  MF iterations:        8; SZ iterations:      8

Date: 2015/08/20; Stress:  1; Step:  8725; Simulation step:15665
                  MF iterations:        4; SZ iterations:      4

Date: 2015/08/21; Stress:  1; Step:  8726; Simulation step:15666
                  MF iterations:        7; SZ iterations:      7

Date: 2015/08/22; Stress:  1; Step:  8727; Simulation step:15667
                  MF iterations:      133; SZ iterations:    133

Date: 2015/08/23; Stress:  1; Step:  8728; Simulation step:15668
                  MF iterations:       13; SZ iterations:     13

Date: 2015/08/24; Stress:  1; Step:  8729; Simulation step:15669
                  MF iterations:        8; SZ iterations:      8

Date: 2015/08/25; Stress:  1; Step:  8730; Simulation step:15670
                  MF iterations:       12; SZ iterations:     12

Date: 2015/08/26; Stress:  1; Step:  8731; Simulation step:15671
                  MF iterations:      121; SZ iterations:    121

Date: 2015/08/27; Stress:  1; Step:  8732; Simulation step:15672
                  MF iterations:       16; SZ iterations:     16

Date: 2015/08/28; Stress:  1; Step:  8733; Simulation step:15673
                  MF iterations:        9; SZ iterations:      9

Date: 2015/08/29; Stress:  1; Step:  8734; Simulation step:15674
                  MF iterations:       28; SZ iterations:     28

Date: 2015/08/30; Stress:  1; Step:  8735; Simulation step:15675
                  MF iterations:      159; SZ iterations:    159

Date: 2015/08/31; Stress:  1; Step:  8736; Simulation step:15676
                  MF iterations:        9; SZ iterations:      9

Date: 2015/09/01; Stress:  1; Step:  8737; Simulation step:15677
                  MF iterations:        8; SZ iterations:      8

Date: 2015/09/02; Stress:  1; Step:  8738; Simulation step:15678
                  MF iterations:        7; SZ iterations:      7

Date: 2015/09/03; Stress:  1; Step:  8739; Simulation step:15679
                  MF iterations:      121; SZ iterations:    121

Date: 2015/09/04; Stress:  1; Step:  8740; Simulation step:15680
                  MF iterations:       10; SZ iterations:     10

Date: 2015/09/05; Stress:  1; Step:  8741; Simulation step:15681
                  MF iterations:        5; SZ iterations:      5

Date: 2015/09/06; Stress:  1; Step:  8742; Simulation step:15682
                  MF iterations:       22; SZ iterations:     22

Date: 2015/09/07; Stress:  1; Step:  8743; Simulation step:15683
                  MF iterations:      151; SZ iterations:    151

Date: 2015/09/08; Stress:  1; Step:  8744; Simulation step:15684
                  MF iterations:       14; SZ iterations:     14

Date: 2015/09/09; Stress:  1; Step:  8745; Simulation step:15685
                  MF iterations:       14; SZ iterations:     14

Date: 2015/09/10; Stress:  1; Step:  8746; Simulation step:15686
                  MF iterations:      140; SZ iterations:    140

Date: 2015/09/11; Stress:  1; Step:  8747; Simulation step:15687
                  MF iterations:        6; SZ iterations:      6

Date: 2015/09/12; Stress:  1; Step:  8748; Simulation step:15688
                  MF iterations:       55; SZ iterations:     55

Date: 2015/09/13; Stress:  1; Step:  8749; Simulation step:15689
                  MF iterations:       14; SZ iterations:     14

Date: 2015/09/14; Stress:  1; Step:  8750; Simulation step:15690
                  MF iterations:        4; SZ iterations:      4

Date: 2015/09/15; Stress:  1; Step:  8751; Simulation step:15691
                  MF iterations:      136; SZ iterations:    136

Date: 2015/09/16; Stress:  1; Step:  8752; Simulation step:15692
                  MF iterations:       21; SZ iterations:     21

Date: 2015/09/17; Stress:  1; Step:  8753; Simulation step:15693
                  MF iterations:        4; SZ iterations:      4

Date: 2015/09/18; Stress:  1; Step:  8754; Simulation step:15694
                  MF iterations:      152; SZ iterations:    152

Date: 2015/09/19; Stress:  1; Step:  8755; Simulation step:15695
                  MF iterations:       14; SZ iterations:     14

Date: 2015/09/20; Stress:  1; Step:  8756; Simulation step:15696
                  MF iterations:       15; SZ iterations:     15

Date: 2015/09/21; Stress:  1; Step:  8757; Simulation step:15697
                  MF iterations:      125; SZ iterations:    125

Date: 2015/09/22; Stress:  1; Step:  8758; Simulation step:15698
                  MF iterations:       49; SZ iterations:     49

Date: 2015/09/23; Stress:  1; Step:  8759; Simulation step:15699
                  MF iterations:       11; SZ iterations:     11

Date: 2015/09/24; Stress:  1; Step:  8760; Simulation step:15700
                  MF iterations:      154; SZ iterations:    154

Date: 2015/09/25; Stress:  1; Step:  8761; Simulation step:15701
                  MF iterations:       11; SZ iterations:     11

Date: 2015/09/26; Stress:  1; Step:  8762; Simulation step:15702
                  MF iterations:        5; SZ iterations:      5

Date: 2015/09/27; Stress:  1; Step:  8763; Simulation step:15703
                  MF iterations:        6; SZ iterations:      6

Date: 2015/09/28; Stress:  1; Step:  8764; Simulation step:15704
                  MF iterations:        9; SZ iterations:      9

Date: 2015/09/29; Stress:  1; Step:  8765; Simulation step:15705
                  MF iterations:      110; SZ iterations:    110

Date: 2015/09/30; Stress:  1; Step:  8766; Simulation step:15706
                  MF iterations:        7; SZ iterations:      7


 Run end date and time (yyyy/mm/dd hh:mm:ss): 2019/06/30  9:41:47
 Elapsed run time: 10 Hours,  8 Minutes,  5 Seconds

 Number of time steps:   8766;  Number of non-convergence:  13
 MF iterations:        130727;  SZ iterations:          130727
 Average MF iterations: 14.91;  Average SZ iterations:   14.91
 Maximum MF iterations:   200;  Maximum SZ iterations:     200

MF iteration distribution:      0   24  476 1330  476  420  438  481  407  493
                              443  398  344  463  349  265  245  202  158  125
                              104  116   67   67   47   48   40   26   31   25
                               23   24   25    9   16   20    9   11   14   18
                               13   10    8   17   10   10   14   11   13    9
                                8   13    7    8   11   10    7   10    4    8
                                6    8    3    5    7    7   11    7    4    4
                                6    7    5    5    2    0    1    1    5  194



SZ computation distribution:    0   24  476 1330  476  420  438  481  407  493
                              443  398  344  463  349  265  245  202  158  125
                              104  116   67   67   47   48   40   26   31   25
                               23   24   25    9   16   20    9   11   14   18
                               13   10    8   17   10   10   14   11   13    9
                                8   13    7    8   11   10    7   10    4    8
                                6    8    3    5    7    7   11    7    4    4
                                6    7    5    5    2    0    1    1    5  194



 FAILED TO MEET SOLVER CONVERGENCE CRITERIA           13  TIME(S)
