

                          U.S. Geological Survey
        Coupled Groundwater and Surface-water FLOW model (GSFLOW)
                         Version 2.1.0 03/04/2020

    An integration of the Precipitation-Runoff Modeling System (PRMS)
    and the Modular Groundwater Model (MODFLOW-NWT and MODFLOW-2005)


               Precipitation-Runoff Modeling System (PRMS)
                       Version 5.1.0 03/04/2020

                            MODFLOW-NWT-SWR1 
  U.S. GEOLOGICAL SURVEY MODULAR FINITE-DIFFERENCE GROUNDWATER-FLOW MODEL
                         WITH NEWTON FORMULATION
                         Version 1.1.4 4/01/2018
              BASED ON MODFLOW-2005 Version 1.12.0 02/03/2017
                      SWR1 Version 1.04.0 09/15/2016

              PROCESSES: GWF and OBS
              PACKAGES:  BAS, BCF, CHD, DE4, FHB, GAG, GHB,
                         HFB, HUF, LAK LPF, MNW1, MNW2, NWT,
                         PCG, SFR, SIP, UPW, UZF, WEL, SWI, SWT, LMT


        Process            Available Modules
--------------------------------------------------------------------
  Basin Definition: basin
    Cascading Flow: cascade
  Time Series Data: obs, water_use_read, dynamic_param_read
   Potet Solar Rad: soltab
  Temperature Dist: temp_1sta, temp_laps, temp_dist2, climate_hru
       Precip Dist: precip_1sta, precip_laps, precip_dist2,
                    climate_hru
Temp & Precip Dist: xyz_dist, ide_dist
    Solar Rad Dist: ccsolrad, ddsolrad, climate_hru
Transpiration Dist: transp_tindex, climate_hru, transp_frost
      Potential ET: potet_hamon, potet_jh, potet_pan, climate_hru,
                    potet_hs, potet_pt, potet_pm, potet_pm_sta
      Interception: intcp
     Snow Dynamics: snowcomp
    Surface Runoff: srunoff_smidx, srunoff_carea
         Soil Zone: soilzone
       Groundwater: gwflow
Streamflow Routing: strmflow, strmflow_in_out, muskingum,
                    muskingum_lake, muskingum_mann
Stream Temperature: stream_temp
    Output Summary: basin_sum, subbasin, map_results, prms_summary,
                    nhru_summary, nsub_summary, water_balance
                    basin_summary, nsegment_summary
     Preprocessing: write_climate_hru, frost_date
--------------------------------------------------------------------


    Active modules listed in the order in which they are called

        Process                   Module                Version Date
====================================================================
GSFLOW Computation Order       gsflow_prms                2020-03-04
Basin Definition               basin                      2019-11-14
Cascading Flow                 cascade                    2019-09-25
Common States and Fluxes       climateflow                2020-01-10
Potential Solar Radiation      soltab                     2016-09-09
PRMS Set Time Variables        prms_time                  2015-03-31
Time Series Data               obs                        2020-01-09
Temperature Distribution       temp_1sta                  2018-01-16
Precipitation Distribution     precip_1sta                2016-10-21
Solar Radiation Distribution   ddsolrad                   2019-04-04
Transpiration Distribution     transp_tindex              2015-01-06
Potential Evapotranspiration   potet_jh                   2019-04-04
Canopy Interception            intcp                      2020-03-03
Snow Dynamics                  snowcomp                   2019-11-27
Surface Runoff                 srunoff_smidx              2020-03-03
Soil Zone Computations         soilzone                   2020-01-10
GSFLOW PRMS to MODFLOW         gsflow_prms2mf             2019-10-30
GSFLOW MODFLOW to PRMS         gsflow_mf2prms             2017-11-15
GSFLOW Output Budget Summary   gsflow_budget              2019-10-30
GSFLOW Output CSV Summary      gsflow_sum                 2019-10-31
Output Summary                 subbasin                   2019-12-02
====================================================================
GSFLOW MODFLOW main            gsflow_modflow             2019-10-30
====================================================================
MODFLOW Packages
====================================================================
UZF-NWT Package                gwf2uzf1_NWT               2019-09-10
SFR-NWT Package                gwf2sfr7_NWT               2017-03-08
LAK-NWT Package                gwf2lak7_NWT               2016-07-21
====================================================================

Using NAME file: carmel.nam

Using Solver Package: NWT 

Using Control File: carmel.control

Using Parameter File: .\INPUT\prms\carmel_main.param

Writing var_init_file: .\input\prms\prms_carmel.in

Writing var_save_file: .\output\prms_carmel.out

Writing PRMS Water Budget File: .\output\carmel_prms.out

mxsziter = 200

Tolerance check for gvr_hru_pct:  0.5000000D-05

Percent difference between GVR mapping and active model domain:  0.0000000D+00

Water Budget print frequency is:   1

Writing GSFLOW Water Budget File: .\output\gsflow.out

Writing GSFLOW CSV File: .\output\gsflow.csv

Simulation time period: 1991/10/01 - 2015/09/30

====================================================================

Date: 1991/10/01; Stress:  1; Step:     1; Simulation step:    1
                  MF iterations:       44; SZ iterations:     44

Date: 1991/10/02; Stress:  1; Step:     2; Simulation step:    2
                  MF iterations:      148; SZ iterations:    148

Date: 1991/10/03; Stress:  1; Step:     3; Simulation step:    3
                  MF iterations:      190; SZ iterations:    190

Date: 1991/10/04; Stress:  1; Step:     4; Simulation step:    4
                  MF iterations:      192; SZ iterations:    192

Date: 1991/10/05; Stress:  1; Step:     5; Simulation step:    5
                  MF iterations:      192; SZ iterations:    192

Date: 1991/10/06; Stress:  1; Step:     6; Simulation step:    6
                  MF iterations:      157; SZ iterations:    157

***TIME STEP FAILED TO CONVERGE - Date: 1991/10/07 number:     1

Date: 1991/10/07; Stress:  1; Step:     7; Simulation step:    7
                  MF iterations:      200; SZ iterations:    200

Date: 1991/10/08; Stress:  1; Step:     8; Simulation step:    8
                  MF iterations:        6; SZ iterations:      6

Date: 1991/10/09; Stress:  1; Step:     9; Simulation step:    9
                  MF iterations:        5; SZ iterations:      5

Date: 1991/10/10; Stress:  1; Step:    10; Simulation step:   10
                  MF iterations:       26; SZ iterations:     26

Date: 1991/10/11; Stress:  1; Step:    11; Simulation step:   11
                  MF iterations:       12; SZ iterations:     12

Date: 1991/10/12; Stress:  1; Step:    12; Simulation step:   12
                  MF iterations:       12; SZ iterations:     12

Date: 1991/10/13; Stress:  1; Step:    13; Simulation step:   13
                  MF iterations:       10; SZ iterations:     10

Date: 1991/10/14; Stress:  1; Step:    14; Simulation step:   14
                  MF iterations:        9; SZ iterations:      9

Date: 1991/10/15; Stress:  1; Step:    15; Simulation step:   15
                  MF iterations:       26; SZ iterations:     26

Date: 1991/10/16; Stress:  1; Step:    16; Simulation step:   16
                  MF iterations:        5; SZ iterations:      5

Date: 1991/10/17; Stress:  1; Step:    17; Simulation step:   17
                  MF iterations:        4; SZ iterations:      4

Date: 1991/10/18; Stress:  1; Step:    18; Simulation step:   18
                  MF iterations:        8; SZ iterations:      8

Date: 1991/10/19; Stress:  1; Step:    19; Simulation step:   19
                  MF iterations:       10; SZ iterations:     10

Date: 1991/10/20; Stress:  1; Step:    20; Simulation step:   20
                  MF iterations:        8; SZ iterations:      8

Date: 1991/10/21; Stress:  1; Step:    21; Simulation step:   21
                  MF iterations:        6; SZ iterations:      6

Date: 1991/10/22; Stress:  1; Step:    22; Simulation step:   22
                  MF iterations:        3; SZ iterations:      3

Date: 1991/10/23; Stress:  1; Step:    23; Simulation step:   23
                  MF iterations:        7; SZ iterations:      7

Date: 1991/10/24; Stress:  1; Step:    24; Simulation step:   24
                  MF iterations:        5; SZ iterations:      5

Date: 1991/10/25; Stress:  1; Step:    25; Simulation step:   25
                  MF iterations:        5; SZ iterations:      5

Date: 1991/10/26; Stress:  1; Step:    26; Simulation step:   26
                  MF iterations:        3; SZ iterations:      3

Date: 1991/10/27; Stress:  1; Step:    27; Simulation step:   27
                  MF iterations:      173; SZ iterations:    173

Date: 1991/10/28; Stress:  1; Step:    28; Simulation step:   28
                  MF iterations:       16; SZ iterations:     16

Date: 1991/10/29; Stress:  1; Step:    29; Simulation step:   29
                  MF iterations:       17; SZ iterations:     17

Date: 1991/10/30; Stress:  1; Step:    30; Simulation step:   30
                  MF iterations:       16; SZ iterations:     16

Date: 1991/10/31; Stress:  1; Step:    31; Simulation step:   31
                  MF iterations:       12; SZ iterations:     12

Date: 1991/11/01; Stress:  1; Step:    32; Simulation step:   32
                  MF iterations:       23; SZ iterations:     23

Date: 1991/11/02; Stress:  1; Step:    33; Simulation step:   33
                  MF iterations:       16; SZ iterations:     16

Date: 1991/11/03; Stress:  1; Step:    34; Simulation step:   34
                  MF iterations:       12; SZ iterations:     12

Date: 1991/11/04; Stress:  1; Step:    35; Simulation step:   35
                  MF iterations:       12; SZ iterations:     12

Date: 1991/11/05; Stress:  1; Step:    36; Simulation step:   36
                  MF iterations:       18; SZ iterations:     18

Date: 1991/11/06; Stress:  1; Step:    37; Simulation step:   37
                  MF iterations:       19; SZ iterations:     19

Date: 1991/11/07; Stress:  1; Step:    38; Simulation step:   38
                  MF iterations:       18; SZ iterations:     18

Date: 1991/11/08; Stress:  1; Step:    39; Simulation step:   39
                  MF iterations:       12; SZ iterations:     12

Date: 1991/11/09; Stress:  1; Step:    40; Simulation step:   40
                  MF iterations:       15; SZ iterations:     15

Date: 1991/11/10; Stress:  1; Step:    41; Simulation step:   41
                  MF iterations:       11; SZ iterations:     11

Date: 1991/11/11; Stress:  1; Step:    42; Simulation step:   42
                  MF iterations:       18; SZ iterations:     18

Date: 1991/11/12; Stress:  1; Step:    43; Simulation step:   43
                  MF iterations:       18; SZ iterations:     18

Date: 1991/11/13; Stress:  1; Step:    44; Simulation step:   44
                  MF iterations:       16; SZ iterations:     16

Date: 1991/11/14; Stress:  1; Step:    45; Simulation step:   45
                  MF iterations:        9; SZ iterations:      9

Date: 1991/11/15; Stress:  1; Step:    46; Simulation step:   46
                  MF iterations:       12; SZ iterations:     12

Date: 1991/11/16; Stress:  1; Step:    47; Simulation step:   47
                  MF iterations:        9; SZ iterations:      9

Date: 1991/11/17; Stress:  1; Step:    48; Simulation step:   48
                  MF iterations:       13; SZ iterations:     13

Date: 1991/11/18; Stress:  1; Step:    49; Simulation step:   49
                  MF iterations:       11; SZ iterations:     11

Date: 1991/11/19; Stress:  1; Step:    50; Simulation step:   50
                  MF iterations:       12; SZ iterations:     12

Date: 1991/11/20; Stress:  1; Step:    51; Simulation step:   51
                  MF iterations:       14; SZ iterations:     14

Date: 1991/11/21; Stress:  1; Step:    52; Simulation step:   52
                  MF iterations:       14; SZ iterations:     14

Date: 1991/11/22; Stress:  1; Step:    53; Simulation step:   53
                  MF iterations:       12; SZ iterations:     12

Date: 1991/11/23; Stress:  1; Step:    54; Simulation step:   54
                  MF iterations:       14; SZ iterations:     14

Date: 1991/11/24; Stress:  1; Step:    55; Simulation step:   55
                  MF iterations:       13; SZ iterations:     13

Date: 1991/11/25; Stress:  1; Step:    56; Simulation step:   56
                  MF iterations:       15; SZ iterations:     15

Date: 1991/11/26; Stress:  1; Step:    57; Simulation step:   57
                  MF iterations:       14; SZ iterations:     14

Date: 1991/11/27; Stress:  1; Step:    58; Simulation step:   58
                  MF iterations:       15; SZ iterations:     15

Date: 1991/11/28; Stress:  1; Step:    59; Simulation step:   59
                  MF iterations:       10; SZ iterations:     10

Date: 1991/11/29; Stress:  1; Step:    60; Simulation step:   60
                  MF iterations:        9; SZ iterations:      9

Date: 1991/11/30; Stress:  1; Step:    61; Simulation step:   61
                  MF iterations:        5; SZ iterations:      5

Date: 1991/12/01; Stress:  1; Step:    62; Simulation step:   62
                  MF iterations:        6; SZ iterations:      6

Date: 1991/12/02; Stress:  1; Step:    63; Simulation step:   63
                  MF iterations:        9; SZ iterations:      9

Date: 1991/12/03; Stress:  1; Step:    64; Simulation step:   64
                  MF iterations:        4; SZ iterations:      4

Date: 1991/12/04; Stress:  1; Step:    65; Simulation step:   65
                  MF iterations:       14; SZ iterations:     14

Date: 1991/12/05; Stress:  1; Step:    66; Simulation step:   66
                  MF iterations:       10; SZ iterations:     10

Date: 1991/12/06; Stress:  1; Step:    67; Simulation step:   67
                  MF iterations:        9; SZ iterations:      9

Date: 1991/12/07; Stress:  1; Step:    68; Simulation step:   68
                  MF iterations:        3; SZ iterations:      3

Date: 1991/12/08; Stress:  1; Step:    69; Simulation step:   69
                  MF iterations:       14; SZ iterations:     14

Date: 1991/12/09; Stress:  1; Step:    70; Simulation step:   70
                  MF iterations:        7; SZ iterations:      7

Date: 1991/12/10; Stress:  1; Step:    71; Simulation step:   71
                  MF iterations:       10; SZ iterations:     10

Date: 1991/12/11; Stress:  1; Step:    72; Simulation step:   72
                  MF iterations:        6; SZ iterations:      6

Date: 1991/12/12; Stress:  1; Step:    73; Simulation step:   73
                  MF iterations:        9; SZ iterations:      9

Date: 1991/12/13; Stress:  1; Step:    74; Simulation step:   74
                  MF iterations:       11; SZ iterations:     11

Date: 1991/12/14; Stress:  1; Step:    75; Simulation step:   75
                  MF iterations:        8; SZ iterations:      8

Date: 1991/12/15; Stress:  1; Step:    76; Simulation step:   76
                  MF iterations:       14; SZ iterations:     14

Date: 1991/12/16; Stress:  1; Step:    77; Simulation step:   77
                  MF iterations:       11; SZ iterations:     11

Date: 1991/12/17; Stress:  1; Step:    78; Simulation step:   78
                  MF iterations:       15; SZ iterations:     15

Date: 1991/12/18; Stress:  1; Step:    79; Simulation step:   79
                  MF iterations:       13; SZ iterations:     13

Date: 1991/12/19; Stress:  1; Step:    80; Simulation step:   80
                  MF iterations:        3; SZ iterations:      3

Date: 1991/12/20; Stress:  1; Step:    81; Simulation step:   81
                  MF iterations:        3; SZ iterations:      3

Date: 1991/12/21; Stress:  1; Step:    82; Simulation step:   82
                  MF iterations:        6; SZ iterations:      6

Date: 1991/12/22; Stress:  1; Step:    83; Simulation step:   83
                  MF iterations:        6; SZ iterations:      6

Date: 1991/12/23; Stress:  1; Step:    84; Simulation step:   84
                  MF iterations:       14; SZ iterations:     14

Date: 1991/12/24; Stress:  1; Step:    85; Simulation step:   85
                  MF iterations:       13; SZ iterations:     13

Date: 1991/12/25; Stress:  1; Step:    86; Simulation step:   86
                  MF iterations:       12; SZ iterations:     12

Date: 1991/12/26; Stress:  1; Step:    87; Simulation step:   87
                  MF iterations:       10; SZ iterations:     10

Date: 1991/12/27; Stress:  1; Step:    88; Simulation step:   88
                  MF iterations:       14; SZ iterations:     14

Date: 1991/12/28; Stress:  1; Step:    89; Simulation step:   89
                  MF iterations:      130; SZ iterations:    130

Date: 1991/12/29; Stress:  1; Step:    90; Simulation step:   90
                  MF iterations:        9; SZ iterations:      9

Date: 1991/12/30; Stress:  1; Step:    91; Simulation step:   91
                  MF iterations:        9; SZ iterations:      9

Date: 1991/12/31; Stress:  1; Step:    92; Simulation step:   92
                  MF iterations:       18; SZ iterations:     18

Date: 1992/01/01; Stress:  1; Step:    93; Simulation step:   93
                  MF iterations:       10; SZ iterations:     10

Date: 1992/01/02; Stress:  1; Step:    94; Simulation step:   94
                  MF iterations:       16; SZ iterations:     16

Date: 1992/01/03; Stress:  1; Step:    95; Simulation step:   95
                  MF iterations:       13; SZ iterations:     13

Date: 1992/01/04; Stress:  1; Step:    96; Simulation step:   96
                  MF iterations:       18; SZ iterations:     18

Date: 1992/01/05; Stress:  1; Step:    97; Simulation step:   97
                  MF iterations:       14; SZ iterations:     14

Date: 1992/01/06; Stress:  1; Step:    98; Simulation step:   98
                  MF iterations:       14; SZ iterations:     14

Date: 1992/01/07; Stress:  1; Step:    99; Simulation step:   99
                  MF iterations:        9; SZ iterations:      9

Date: 1992/01/08; Stress:  1; Step:   100; Simulation step:  100
                  MF iterations:        9; SZ iterations:      9

Date: 1992/01/09; Stress:  1; Step:   101; Simulation step:  101
                  MF iterations:        8; SZ iterations:      8

Date: 1992/01/10; Stress:  1; Step:   102; Simulation step:  102
                  MF iterations:        7; SZ iterations:      7

Date: 1992/01/11; Stress:  1; Step:   103; Simulation step:  103
                  MF iterations:        6; SZ iterations:      6

Date: 1992/01/12; Stress:  1; Step:   104; Simulation step:  104
                  MF iterations:        6; SZ iterations:      6

Date: 1992/01/13; Stress:  1; Step:   105; Simulation step:  105
                  MF iterations:        7; SZ iterations:      7

Date: 1992/01/14; Stress:  1; Step:   106; Simulation step:  106
                  MF iterations:       12; SZ iterations:     12

Date: 1992/01/15; Stress:  1; Step:   107; Simulation step:  107
                  MF iterations:        4; SZ iterations:      4

Date: 1992/01/16; Stress:  1; Step:   108; Simulation step:  108
                  MF iterations:        8; SZ iterations:      8

Date: 1992/01/17; Stress:  1; Step:   109; Simulation step:  109
                  MF iterations:        8; SZ iterations:      8

Date: 1992/01/18; Stress:  1; Step:   110; Simulation step:  110
                  MF iterations:       20; SZ iterations:     20

Date: 1992/01/19; Stress:  1; Step:   111; Simulation step:  111
                  MF iterations:       11; SZ iterations:     11

Date: 1992/01/20; Stress:  1; Step:   112; Simulation step:  112
                  MF iterations:        6; SZ iterations:      6

Date: 1992/01/21; Stress:  1; Step:   113; Simulation step:  113
                  MF iterations:        6; SZ iterations:      6

Date: 1992/01/22; Stress:  1; Step:   114; Simulation step:  114
                  MF iterations:       15; SZ iterations:     15

Date: 1992/01/23; Stress:  1; Step:   115; Simulation step:  115
                  MF iterations:        7; SZ iterations:      7

Date: 1992/01/24; Stress:  1; Step:   116; Simulation step:  116
                  MF iterations:        8; SZ iterations:      8

Date: 1992/01/25; Stress:  1; Step:   117; Simulation step:  117
                  MF iterations:       17; SZ iterations:     17

Date: 1992/01/26; Stress:  1; Step:   118; Simulation step:  118
                  MF iterations:       10; SZ iterations:     10

Date: 1992/01/27; Stress:  1; Step:   119; Simulation step:  119
                  MF iterations:       13; SZ iterations:     13

Date: 1992/01/28; Stress:  1; Step:   120; Simulation step:  120
                  MF iterations:       13; SZ iterations:     13

Date: 1992/01/29; Stress:  1; Step:   121; Simulation step:  121
                  MF iterations:       15; SZ iterations:     15

Date: 1992/01/30; Stress:  1; Step:   122; Simulation step:  122
                  MF iterations:        7; SZ iterations:      7

Date: 1992/01/31; Stress:  1; Step:   123; Simulation step:  123
                  MF iterations:        9; SZ iterations:      9

Date: 1992/02/01; Stress:  1; Step:   124; Simulation step:  124
                  MF iterations:       11; SZ iterations:     11

Date: 1992/02/02; Stress:  1; Step:   125; Simulation step:  125
                  MF iterations:        5; SZ iterations:      5

Date: 1992/02/03; Stress:  1; Step:   126; Simulation step:  126
                  MF iterations:       10; SZ iterations:     10

Date: 1992/02/04; Stress:  1; Step:   127; Simulation step:  127
                  MF iterations:       12; SZ iterations:     12

Date: 1992/02/05; Stress:  1; Step:   128; Simulation step:  128
                  MF iterations:       11; SZ iterations:     11

Date: 1992/02/06; Stress:  1; Step:   129; Simulation step:  129
                  MF iterations:       18; SZ iterations:     18

Date: 1992/02/07; Stress:  1; Step:   130; Simulation step:  130
                  MF iterations:       11; SZ iterations:     11

Date: 1992/02/08; Stress:  1; Step:   131; Simulation step:  131
                  MF iterations:       15; SZ iterations:     15

Date: 1992/02/09; Stress:  1; Step:   132; Simulation step:  132
                  MF iterations:        6; SZ iterations:      6

Date: 1992/02/10; Stress:  1; Step:   133; Simulation step:  133
                  MF iterations:       49; SZ iterations:     49

Date: 1992/02/11; Stress:  1; Step:   134; Simulation step:  134
                  MF iterations:       49; SZ iterations:     49

Date: 1992/02/12; Stress:  1; Step:   135; Simulation step:  135
                  MF iterations:        4; SZ iterations:      4

Date: 1992/02/13; Stress:  1; Step:   136; Simulation step:  136
                  MF iterations:       12; SZ iterations:     12

Date: 1992/02/14; Stress:  1; Step:   137; Simulation step:  137
                  MF iterations:        4; SZ iterations:      4

***TIME STEP FAILED TO CONVERGE - Date: 1992/02/15 number:     2

Date: 1992/02/15; Stress:  1; Step:   138; Simulation step:  138
                  MF iterations:      200; SZ iterations:    200

Date: 1992/02/16; Stress:  1; Step:   139; Simulation step:  139
                  MF iterations:       15; SZ iterations:     15

Date: 1992/02/17; Stress:  1; Step:   140; Simulation step:  140
                  MF iterations:       93; SZ iterations:     93

Date: 1992/02/18; Stress:  1; Step:   141; Simulation step:  141
                  MF iterations:       14; SZ iterations:     14

Date: 1992/02/19; Stress:  1; Step:   142; Simulation step:  142
                  MF iterations:        4; SZ iterations:      4

Date: 1992/02/20; Stress:  1; Step:   143; Simulation step:  143
                  MF iterations:        6; SZ iterations:      6

Date: 1992/02/21; Stress:  1; Step:   144; Simulation step:  144
                  MF iterations:        4; SZ iterations:      4

Date: 1992/02/22; Stress:  1; Step:   145; Simulation step:  145
                  MF iterations:        4; SZ iterations:      4

Date: 1992/02/23; Stress:  1; Step:   146; Simulation step:  146
                  MF iterations:        4; SZ iterations:      4

Date: 1992/02/24; Stress:  1; Step:   147; Simulation step:  147
                  MF iterations:        5; SZ iterations:      5

Date: 1992/02/25; Stress:  1; Step:   148; Simulation step:  148
                  MF iterations:        6; SZ iterations:      6

Date: 1992/02/26; Stress:  1; Step:   149; Simulation step:  149
                  MF iterations:        9; SZ iterations:      9

Date: 1992/02/27; Stress:  1; Step:   150; Simulation step:  150
                  MF iterations:       36; SZ iterations:     36

Date: 1992/02/28; Stress:  1; Step:   151; Simulation step:  151
                  MF iterations:       22; SZ iterations:     22

Date: 1992/02/29; Stress:  1; Step:   152; Simulation step:  152
                  MF iterations:        7; SZ iterations:      7

Date: 1992/03/01; Stress:  1; Step:   153; Simulation step:  153
                  MF iterations:        4; SZ iterations:      4

Date: 1992/03/02; Stress:  1; Step:   154; Simulation step:  154
                  MF iterations:        5; SZ iterations:      5

Date: 1992/03/03; Stress:  1; Step:   155; Simulation step:  155
                  MF iterations:        8; SZ iterations:      8

Date: 1992/03/04; Stress:  1; Step:   156; Simulation step:  156
                  MF iterations:        5; SZ iterations:      5

Date: 1992/03/05; Stress:  1; Step:   157; Simulation step:  157
                  MF iterations:        3; SZ iterations:      3

Date: 1992/03/06; Stress:  1; Step:   158; Simulation step:  158
                  MF iterations:       12; SZ iterations:     12

Date: 1992/03/07; Stress:  1; Step:   159; Simulation step:  159
                  MF iterations:        4; SZ iterations:      4

Date: 1992/03/08; Stress:  1; Step:   160; Simulation step:  160
                  MF iterations:        6; SZ iterations:      6

Date: 1992/03/09; Stress:  1; Step:   161; Simulation step:  161
                  MF iterations:       14; SZ iterations:     14

Date: 1992/03/10; Stress:  1; Step:   162; Simulation step:  162
                  MF iterations:       14; SZ iterations:     14

Date: 1992/03/11; Stress:  1; Step:   163; Simulation step:  163
                  MF iterations:       13; SZ iterations:     13

Date: 1992/03/12; Stress:  1; Step:   164; Simulation step:  164
                  MF iterations:       14; SZ iterations:     14

Date: 1992/03/13; Stress:  1; Step:   165; Simulation step:  165
                  MF iterations:       13; SZ iterations:     13

Date: 1992/03/14; Stress:  1; Step:   166; Simulation step:  166
                  MF iterations:       12; SZ iterations:     12

Date: 1992/03/15; Stress:  1; Step:   167; Simulation step:  167
                  MF iterations:       12; SZ iterations:     12

Date: 1992/03/16; Stress:  1; Step:   168; Simulation step:  168
                  MF iterations:        4; SZ iterations:      4

Date: 1992/03/17; Stress:  1; Step:   169; Simulation step:  169
                  MF iterations:       13; SZ iterations:     13

Date: 1992/03/18; Stress:  1; Step:   170; Simulation step:  170
                  MF iterations:        7; SZ iterations:      7

Date: 1992/03/19; Stress:  1; Step:   171; Simulation step:  171
                  MF iterations:        5; SZ iterations:      5

Date: 1992/03/20; Stress:  1; Step:   172; Simulation step:  172
                  MF iterations:       12; SZ iterations:     12

Date: 1992/03/21; Stress:  1; Step:   173; Simulation step:  173
                  MF iterations:        5; SZ iterations:      5

Date: 1992/03/22; Stress:  1; Step:   174; Simulation step:  174
                  MF iterations:        4; SZ iterations:      4

Date: 1992/03/23; Stress:  1; Step:   175; Simulation step:  175
                  MF iterations:       12; SZ iterations:     12

Date: 1992/03/24; Stress:  1; Step:   176; Simulation step:  176
                  MF iterations:       13; SZ iterations:     13

Date: 1992/03/25; Stress:  1; Step:   177; Simulation step:  177
                  MF iterations:        7; SZ iterations:      7

Date: 1992/03/26; Stress:  1; Step:   178; Simulation step:  178
                  MF iterations:        7; SZ iterations:      7

Date: 1992/03/27; Stress:  1; Step:   179; Simulation step:  179
                  MF iterations:       17; SZ iterations:     17

Date: 1992/03/28; Stress:  1; Step:   180; Simulation step:  180
                  MF iterations:       14; SZ iterations:     14

Date: 1992/03/29; Stress:  1; Step:   181; Simulation step:  181
                  MF iterations:        7; SZ iterations:      7

Date: 1992/03/30; Stress:  1; Step:   182; Simulation step:  182
                  MF iterations:        6; SZ iterations:      6

Date: 1992/03/31; Stress:  1; Step:   183; Simulation step:  183
                  MF iterations:       21; SZ iterations:     21

Date: 1992/04/01; Stress:  1; Step:   184; Simulation step:  184
                  MF iterations:       16; SZ iterations:     16

Date: 1992/04/02; Stress:  1; Step:   185; Simulation step:  185
                  MF iterations:       14; SZ iterations:     14

Date: 1992/04/03; Stress:  1; Step:   186; Simulation step:  186
                  MF iterations:       13; SZ iterations:     13

Date: 1992/04/04; Stress:  1; Step:   187; Simulation step:  187
                  MF iterations:       12; SZ iterations:     12

Date: 1992/04/05; Stress:  1; Step:   188; Simulation step:  188
                  MF iterations:        7; SZ iterations:      7

Date: 1992/04/06; Stress:  1; Step:   189; Simulation step:  189
                  MF iterations:       13; SZ iterations:     13

Date: 1992/04/07; Stress:  1; Step:   190; Simulation step:  190
                  MF iterations:       15; SZ iterations:     15

Date: 1992/04/08; Stress:  1; Step:   191; Simulation step:  191
                  MF iterations:       13; SZ iterations:     13

Date: 1992/04/09; Stress:  1; Step:   192; Simulation step:  192
                  MF iterations:       12; SZ iterations:     12

Date: 1992/04/10; Stress:  1; Step:   193; Simulation step:  193
                  MF iterations:       14; SZ iterations:     14

Date: 1992/04/11; Stress:  1; Step:   194; Simulation step:  194
                  MF iterations:       11; SZ iterations:     11

Date: 1992/04/12; Stress:  1; Step:   195; Simulation step:  195
                  MF iterations:       14; SZ iterations:     14

Date: 1992/04/13; Stress:  1; Step:   196; Simulation step:  196
                  MF iterations:        8; SZ iterations:      8

Date: 1992/04/14; Stress:  1; Step:   197; Simulation step:  197
                  MF iterations:       13; SZ iterations:     13

Date: 1992/04/15; Stress:  1; Step:   198; Simulation step:  198
                  MF iterations:       14; SZ iterations:     14

Date: 1992/04/16; Stress:  1; Step:   199; Simulation step:  199
                  MF iterations:       17; SZ iterations:     17

Date: 1992/04/17; Stress:  1; Step:   200; Simulation step:  200
                  MF iterations:       12; SZ iterations:     12

Date: 1992/04/18; Stress:  1; Step:   201; Simulation step:  201
                  MF iterations:       14; SZ iterations:     14

Date: 1992/04/19; Stress:  1; Step:   202; Simulation step:  202
                  MF iterations:       19; SZ iterations:     19

Date: 1992/04/20; Stress:  1; Step:   203; Simulation step:  203
                  MF iterations:       14; SZ iterations:     14

Date: 1992/04/21; Stress:  1; Step:   204; Simulation step:  204
                  MF iterations:       14; SZ iterations:     14

Date: 1992/04/22; Stress:  1; Step:   205; Simulation step:  205
                  MF iterations:       13; SZ iterations:     13

Date: 1992/04/23; Stress:  1; Step:   206; Simulation step:  206
                  MF iterations:       22; SZ iterations:     22

Date: 1992/04/24; Stress:  1; Step:   207; Simulation step:  207
                  MF iterations:       20; SZ iterations:     20

Date: 1992/04/25; Stress:  1; Step:   208; Simulation step:  208
                  MF iterations:       18; SZ iterations:     18

Date: 1992/04/26; Stress:  1; Step:   209; Simulation step:  209
                  MF iterations:       20; SZ iterations:     20

Date: 1992/04/27; Stress:  1; Step:   210; Simulation step:  210
                  MF iterations:       17; SZ iterations:     17

Date: 1992/04/28; Stress:  1; Step:   211; Simulation step:  211
                  MF iterations:       15; SZ iterations:     15

Date: 1992/04/29; Stress:  1; Step:   212; Simulation step:  212
                  MF iterations:       66; SZ iterations:     66

Date: 1992/04/30; Stress:  1; Step:   213; Simulation step:  213
                  MF iterations:       68; SZ iterations:     68

Date: 1992/05/01; Stress:  1; Step:   214; Simulation step:  214
                  MF iterations:       66; SZ iterations:     66

Date: 1992/05/02; Stress:  1; Step:   215; Simulation step:  215
                  MF iterations:        7; SZ iterations:      7

Date: 1992/05/03; Stress:  1; Step:   216; Simulation step:  216
                  MF iterations:       10; SZ iterations:     10

Date: 1992/05/04; Stress:  1; Step:   217; Simulation step:  217
                  MF iterations:        7; SZ iterations:      7

Date: 1992/05/05; Stress:  1; Step:   218; Simulation step:  218
                  MF iterations:       11; SZ iterations:     11

Date: 1992/05/06; Stress:  1; Step:   219; Simulation step:  219
                  MF iterations:        9; SZ iterations:      9

Date: 1992/05/07; Stress:  1; Step:   220; Simulation step:  220
                  MF iterations:       11; SZ iterations:     11

Date: 1992/05/08; Stress:  1; Step:   221; Simulation step:  221
                  MF iterations:       10; SZ iterations:     10

Date: 1992/05/09; Stress:  1; Step:   222; Simulation step:  222
                  MF iterations:       11; SZ iterations:     11

Date: 1992/05/10; Stress:  1; Step:   223; Simulation step:  223
                  MF iterations:        9; SZ iterations:      9

Date: 1992/05/11; Stress:  1; Step:   224; Simulation step:  224
                  MF iterations:       14; SZ iterations:     14

Date: 1992/05/12; Stress:  1; Step:   225; Simulation step:  225
                  MF iterations:       11; SZ iterations:     11

Date: 1992/05/13; Stress:  1; Step:   226; Simulation step:  226
                  MF iterations:       13; SZ iterations:     13

Date: 1992/05/14; Stress:  1; Step:   227; Simulation step:  227
                  MF iterations:       14; SZ iterations:     14

Date: 1992/05/15; Stress:  1; Step:   228; Simulation step:  228
                  MF iterations:       13; SZ iterations:     13

Date: 1992/05/16; Stress:  1; Step:   229; Simulation step:  229
                  MF iterations:       14; SZ iterations:     14

Date: 1992/05/17; Stress:  1; Step:   230; Simulation step:  230
                  MF iterations:       14; SZ iterations:     14

Date: 1992/05/18; Stress:  1; Step:   231; Simulation step:  231
                  MF iterations:       14; SZ iterations:     14

Date: 1992/05/19; Stress:  1; Step:   232; Simulation step:  232
                  MF iterations:       11; SZ iterations:     11

Date: 1992/05/20; Stress:  1; Step:   233; Simulation step:  233
                  MF iterations:       13; SZ iterations:     13

Date: 1992/05/21; Stress:  1; Step:   234; Simulation step:  234
                  MF iterations:       11; SZ iterations:     11

Date: 1992/05/22; Stress:  1; Step:   235; Simulation step:  235
                  MF iterations:       14; SZ iterations:     14

Date: 1992/05/23; Stress:  1; Step:   236; Simulation step:  236
                  MF iterations:       16; SZ iterations:     16

Date: 1992/05/24; Stress:  1; Step:   237; Simulation step:  237
                  MF iterations:       14; SZ iterations:     14

Date: 1992/05/25; Stress:  1; Step:   238; Simulation step:  238
                  MF iterations:       14; SZ iterations:     14

Date: 1992/05/26; Stress:  1; Step:   239; Simulation step:  239
                  MF iterations:       11; SZ iterations:     11

Date: 1992/05/27; Stress:  1; Step:   240; Simulation step:  240
                  MF iterations:       10; SZ iterations:     10

Date: 1992/05/28; Stress:  1; Step:   241; Simulation step:  241
                  MF iterations:       10; SZ iterations:     10

Date: 1992/05/29; Stress:  1; Step:   242; Simulation step:  242
                  MF iterations:       11; SZ iterations:     11

Date: 1992/05/30; Stress:  1; Step:   243; Simulation step:  243
                  MF iterations:       11; SZ iterations:     11

Date: 1992/05/31; Stress:  1; Step:   244; Simulation step:  244
                  MF iterations:       17; SZ iterations:     17

Date: 1992/06/01; Stress:  1; Step:   245; Simulation step:  245
                  MF iterations:       14; SZ iterations:     14

Date: 1992/06/02; Stress:  1; Step:   246; Simulation step:  246
                  MF iterations:       12; SZ iterations:     12

Date: 1992/06/03; Stress:  1; Step:   247; Simulation step:  247
                  MF iterations:       10; SZ iterations:     10

Date: 1992/06/04; Stress:  1; Step:   248; Simulation step:  248
                  MF iterations:       11; SZ iterations:     11

Date: 1992/06/05; Stress:  1; Step:   249; Simulation step:  249
                  MF iterations:       14; SZ iterations:     14

Date: 1992/06/06; Stress:  1; Step:   250; Simulation step:  250
                  MF iterations:        9; SZ iterations:      9

Date: 1992/06/07; Stress:  1; Step:   251; Simulation step:  251
                  MF iterations:       11; SZ iterations:     11

Date: 1992/06/08; Stress:  1; Step:   252; Simulation step:  252
                  MF iterations:       13; SZ iterations:     13

Date: 1992/06/09; Stress:  1; Step:   253; Simulation step:  253
                  MF iterations:       10; SZ iterations:     10

Date: 1992/06/10; Stress:  1; Step:   254; Simulation step:  254
                  MF iterations:       62; SZ iterations:     62

Date: 1992/06/11; Stress:  1; Step:   255; Simulation step:  255
                  MF iterations:       20; SZ iterations:     20

Date: 1992/06/12; Stress:  1; Step:   256; Simulation step:  256
                  MF iterations:        8; SZ iterations:      8

Date: 1992/06/13; Stress:  1; Step:   257; Simulation step:  257
                  MF iterations:       10; SZ iterations:     10

Date: 1992/06/14; Stress:  1; Step:   258; Simulation step:  258
                  MF iterations:        7; SZ iterations:      7

Date: 1992/06/15; Stress:  1; Step:   259; Simulation step:  259
                  MF iterations:        7; SZ iterations:      7

Date: 1992/06/16; Stress:  1; Step:   260; Simulation step:  260
                  MF iterations:        8; SZ iterations:      8

Date: 1992/06/17; Stress:  1; Step:   261; Simulation step:  261
                  MF iterations:       10; SZ iterations:     10

Date: 1992/06/18; Stress:  1; Step:   262; Simulation step:  262
                  MF iterations:        8; SZ iterations:      8

Date: 1992/06/19; Stress:  1; Step:   263; Simulation step:  263
                  MF iterations:        8; SZ iterations:      8

Date: 1992/06/20; Stress:  1; Step:   264; Simulation step:  264
                  MF iterations:       12; SZ iterations:     12

Date: 1992/06/21; Stress:  1; Step:   265; Simulation step:  265
                  MF iterations:       13; SZ iterations:     13

Date: 1992/06/22; Stress:  1; Step:   266; Simulation step:  266
                  MF iterations:       15; SZ iterations:     15

Date: 1992/06/23; Stress:  1; Step:   267; Simulation step:  267
                  MF iterations:       13; SZ iterations:     13

Date: 1992/06/24; Stress:  1; Step:   268; Simulation step:  268
                  MF iterations:       16; SZ iterations:     16

Date: 1992/06/25; Stress:  1; Step:   269; Simulation step:  269
                  MF iterations:       12; SZ iterations:     12

Date: 1992/06/26; Stress:  1; Step:   270; Simulation step:  270
                  MF iterations:       25; SZ iterations:     25

Date: 1992/06/27; Stress:  1; Step:   271; Simulation step:  271
                  MF iterations:       40; SZ iterations:     40

Date: 1992/06/28; Stress:  1; Step:   272; Simulation step:  272
                  MF iterations:       10; SZ iterations:     10

Date: 1992/06/29; Stress:  1; Step:   273; Simulation step:  273
                  MF iterations:       11; SZ iterations:     11

Date: 1992/06/30; Stress:  1; Step:   274; Simulation step:  274
                  MF iterations:       15; SZ iterations:     15

Date: 1992/07/01; Stress:  1; Step:   275; Simulation step:  275
                  MF iterations:       15; SZ iterations:     15

Date: 1992/07/02; Stress:  1; Step:   276; Simulation step:  276
                  MF iterations:       11; SZ iterations:     11

Date: 1992/07/03; Stress:  1; Step:   277; Simulation step:  277
                  MF iterations:       14; SZ iterations:     14

Date: 1992/07/04; Stress:  1; Step:   278; Simulation step:  278
                  MF iterations:       12; SZ iterations:     12

Date: 1992/07/05; Stress:  1; Step:   279; Simulation step:  279
                  MF iterations:       18; SZ iterations:     18

Date: 1992/07/06; Stress:  1; Step:   280; Simulation step:  280
                  MF iterations:       18; SZ iterations:     18

Date: 1992/07/07; Stress:  1; Step:   281; Simulation step:  281
                  MF iterations:       46; SZ iterations:     46

Date: 1992/07/08; Stress:  1; Step:   282; Simulation step:  282
                  MF iterations:       21; SZ iterations:     21

Date: 1992/07/09; Stress:  1; Step:   283; Simulation step:  283
                  MF iterations:       14; SZ iterations:     14

Date: 1992/07/10; Stress:  1; Step:   284; Simulation step:  284
                  MF iterations:       18; SZ iterations:     18

Date: 1992/07/11; Stress:  1; Step:   285; Simulation step:  285
                  MF iterations:       14; SZ iterations:     14

Date: 1992/07/12; Stress:  1; Step:   286; Simulation step:  286
                  MF iterations:       14; SZ iterations:     14

Date: 1992/07/13; Stress:  1; Step:   287; Simulation step:  287
                  MF iterations:       14; SZ iterations:     14

Date: 1992/07/14; Stress:  1; Step:   288; Simulation step:  288
                  MF iterations:       12; SZ iterations:     12

Date: 1992/07/15; Stress:  1; Step:   289; Simulation step:  289
                  MF iterations:       18; SZ iterations:     18

Date: 1992/07/16; Stress:  1; Step:   290; Simulation step:  290
                  MF iterations:       14; SZ iterations:     14

Date: 1992/07/17; Stress:  1; Step:   291; Simulation step:  291
                  MF iterations:       15; SZ iterations:     15

Date: 1992/07/18; Stress:  1; Step:   292; Simulation step:  292
                  MF iterations:       17; SZ iterations:     17

Date: 1992/07/19; Stress:  1; Step:   293; Simulation step:  293
                  MF iterations:       12; SZ iterations:     12

Date: 1992/07/20; Stress:  1; Step:   294; Simulation step:  294
                  MF iterations:       11; SZ iterations:     11

Date: 1992/07/21; Stress:  1; Step:   295; Simulation step:  295
                  MF iterations:       11; SZ iterations:     11

Date: 1992/07/22; Stress:  1; Step:   296; Simulation step:  296
                  MF iterations:       11; SZ iterations:     11

Date: 1992/07/23; Stress:  1; Step:   297; Simulation step:  297
                  MF iterations:       11; SZ iterations:     11

Date: 1992/07/24; Stress:  1; Step:   298; Simulation step:  298
                  MF iterations:       11; SZ iterations:     11

Date: 1992/07/25; Stress:  1; Step:   299; Simulation step:  299
                  MF iterations:       14; SZ iterations:     14

Date: 1992/07/26; Stress:  1; Step:   300; Simulation step:  300
                  MF iterations:       15; SZ iterations:     15

Date: 1992/07/27; Stress:  1; Step:   301; Simulation step:  301
                  MF iterations:       12; SZ iterations:     12

Date: 1992/07/28; Stress:  1; Step:   302; Simulation step:  302
                  MF iterations:       13; SZ iterations:     13

Date: 1992/07/29; Stress:  1; Step:   303; Simulation step:  303
                  MF iterations:       11; SZ iterations:     11

Date: 1992/07/30; Stress:  1; Step:   304; Simulation step:  304
                  MF iterations:       10; SZ iterations:     10

Date: 1992/07/31; Stress:  1; Step:   305; Simulation step:  305
                  MF iterations:       11; SZ iterations:     11

Date: 1992/08/01; Stress:  1; Step:   306; Simulation step:  306
                  MF iterations:       14; SZ iterations:     14

Date: 1992/08/02; Stress:  1; Step:   307; Simulation step:  307
                  MF iterations:       31; SZ iterations:     31

Date: 1992/08/03; Stress:  1; Step:   308; Simulation step:  308
                  MF iterations:       10; SZ iterations:     10

Date: 1992/08/04; Stress:  1; Step:   309; Simulation step:  309
                  MF iterations:        9; SZ iterations:      9

Date: 1992/08/05; Stress:  1; Step:   310; Simulation step:  310
                  MF iterations:       12; SZ iterations:     12

Date: 1992/08/06; Stress:  1; Step:   311; Simulation step:  311
                  MF iterations:       11; SZ iterations:     11

Date: 1992/08/07; Stress:  1; Step:   312; Simulation step:  312
                  MF iterations:       12; SZ iterations:     12

Date: 1992/08/08; Stress:  1; Step:   313; Simulation step:  313
                  MF iterations:       14; SZ iterations:     14

Date: 1992/08/09; Stress:  1; Step:   314; Simulation step:  314
                  MF iterations:       18; SZ iterations:     18

Date: 1992/08/10; Stress:  1; Step:   315; Simulation step:  315
                  MF iterations:       11; SZ iterations:     11

Date: 1992/08/11; Stress:  1; Step:   316; Simulation step:  316
                  MF iterations:       14; SZ iterations:     14

Date: 1992/08/12; Stress:  1; Step:   317; Simulation step:  317
                  MF iterations:       16; SZ iterations:     16

Date: 1992/08/13; Stress:  1; Step:   318; Simulation step:  318
                  MF iterations:       13; SZ iterations:     13

Date: 1992/08/14; Stress:  1; Step:   319; Simulation step:  319
                  MF iterations:       16; SZ iterations:     16

Date: 1992/08/15; Stress:  1; Step:   320; Simulation step:  320
                  MF iterations:       14; SZ iterations:     14

Date: 1992/08/16; Stress:  1; Step:   321; Simulation step:  321
                  MF iterations:       14; SZ iterations:     14

Date: 1992/08/17; Stress:  1; Step:   322; Simulation step:  322
                  MF iterations:       10; SZ iterations:     10

Date: 1992/08/18; Stress:  1; Step:   323; Simulation step:  323
                  MF iterations:       10; SZ iterations:     10

Date: 1992/08/19; Stress:  1; Step:   324; Simulation step:  324
                  MF iterations:        8; SZ iterations:      8

Date: 1992/08/20; Stress:  1; Step:   325; Simulation step:  325
                  MF iterations:        8; SZ iterations:      8

Date: 1992/08/21; Stress:  1; Step:   326; Simulation step:  326
                  MF iterations:        7; SZ iterations:      7

Date: 1992/08/22; Stress:  1; Step:   327; Simulation step:  327
                  MF iterations:       15; SZ iterations:     15

Date: 1992/08/23; Stress:  1; Step:   328; Simulation step:  328
                  MF iterations:       12; SZ iterations:     12

Date: 1992/08/24; Stress:  1; Step:   329; Simulation step:  329
                  MF iterations:       14; SZ iterations:     14

Date: 1992/08/25; Stress:  1; Step:   330; Simulation step:  330
                  MF iterations:        8; SZ iterations:      8

Date: 1992/08/26; Stress:  1; Step:   331; Simulation step:  331
                  MF iterations:       10; SZ iterations:     10

Date: 1992/08/27; Stress:  1; Step:   332; Simulation step:  332
                  MF iterations:       15; SZ iterations:     15

Date: 1992/08/28; Stress:  1; Step:   333; Simulation step:  333
                  MF iterations:       10; SZ iterations:     10

Date: 1992/08/29; Stress:  1; Step:   334; Simulation step:  334
                  MF iterations:        6; SZ iterations:      6

Date: 1992/08/30; Stress:  1; Step:   335; Simulation step:  335
                  MF iterations:       19; SZ iterations:     19

Date: 1992/08/31; Stress:  1; Step:   336; Simulation step:  336
                  MF iterations:       10; SZ iterations:     10

Date: 1992/09/01; Stress:  1; Step:   337; Simulation step:  337
                  MF iterations:       12; SZ iterations:     12

Date: 1992/09/02; Stress:  1; Step:   338; Simulation step:  338
                  MF iterations:       13; SZ iterations:     13

Date: 1992/09/03; Stress:  1; Step:   339; Simulation step:  339
                  MF iterations:       12; SZ iterations:     12

Date: 1992/09/04; Stress:  1; Step:   340; Simulation step:  340
                  MF iterations:       10; SZ iterations:     10

Date: 1992/09/05; Stress:  1; Step:   341; Simulation step:  341
                  MF iterations:       11; SZ iterations:     11

Date: 1992/09/06; Stress:  1; Step:   342; Simulation step:  342
                  MF iterations:        9; SZ iterations:      9

Date: 1992/09/07; Stress:  1; Step:   343; Simulation step:  343
                  MF iterations:        7; SZ iterations:      7

Date: 1992/09/08; Stress:  1; Step:   344; Simulation step:  344
                  MF iterations:       10; SZ iterations:     10

Date: 1992/09/09; Stress:  1; Step:   345; Simulation step:  345
                  MF iterations:        8; SZ iterations:      8

Date: 1992/09/10; Stress:  1; Step:   346; Simulation step:  346
                  MF iterations:       11; SZ iterations:     11

Date: 1992/09/11; Stress:  1; Step:   347; Simulation step:  347
                  MF iterations:        9; SZ iterations:      9

Date: 1992/09/12; Stress:  1; Step:   348; Simulation step:  348
                  MF iterations:       14; SZ iterations:     14

Date: 1992/09/13; Stress:  1; Step:   349; Simulation step:  349
                  MF iterations:        8; SZ iterations:      8

Date: 1992/09/14; Stress:  1; Step:   350; Simulation step:  350
                  MF iterations:        5; SZ iterations:      5

Date: 1992/09/15; Stress:  1; Step:   351; Simulation step:  351
                  MF iterations:        8; SZ iterations:      8

Date: 1992/09/16; Stress:  1; Step:   352; Simulation step:  352
                  MF iterations:        8; SZ iterations:      8

Date: 1992/09/17; Stress:  1; Step:   353; Simulation step:  353
                  MF iterations:        9; SZ iterations:      9

Date: 1992/09/18; Stress:  1; Step:   354; Simulation step:  354
                  MF iterations:       11; SZ iterations:     11

Date: 1992/09/19; Stress:  1; Step:   355; Simulation step:  355
                  MF iterations:        8; SZ iterations:      8

Date: 1992/09/20; Stress:  1; Step:   356; Simulation step:  356
                  MF iterations:        9; SZ iterations:      9

Date: 1992/09/21; Stress:  1; Step:   357; Simulation step:  357
                  MF iterations:        9; SZ iterations:      9

Date: 1992/09/22; Stress:  1; Step:   358; Simulation step:  358
                  MF iterations:        9; SZ iterations:      9

Date: 1992/09/23; Stress:  1; Step:   359; Simulation step:  359
                  MF iterations:        8; SZ iterations:      8

Date: 1992/09/24; Stress:  1; Step:   360; Simulation step:  360
                  MF iterations:        8; SZ iterations:      8

Date: 1992/09/25; Stress:  1; Step:   361; Simulation step:  361
                  MF iterations:       14; SZ iterations:     14

Date: 1992/09/26; Stress:  1; Step:   362; Simulation step:  362
                  MF iterations:       12; SZ iterations:     12

Date: 1992/09/27; Stress:  1; Step:   363; Simulation step:  363
                  MF iterations:       10; SZ iterations:     10

Date: 1992/09/28; Stress:  1; Step:   364; Simulation step:  364
                  MF iterations:       10; SZ iterations:     10

Date: 1992/09/29; Stress:  1; Step:   365; Simulation step:  365
                  MF iterations:        8; SZ iterations:      8

Date: 1992/09/30; Stress:  1; Step:   366; Simulation step:  366
                  MF iterations:        5; SZ iterations:      5

Date: 1992/10/01; Stress:  1; Step:   367; Simulation step:  367
                  MF iterations:       10; SZ iterations:     10

Date: 1992/10/02; Stress:  1; Step:   368; Simulation step:  368
                  MF iterations:        4; SZ iterations:      4

Date: 1992/10/03; Stress:  1; Step:   369; Simulation step:  369
                  MF iterations:       10; SZ iterations:     10

Date: 1992/10/04; Stress:  1; Step:   370; Simulation step:  370
                  MF iterations:       13; SZ iterations:     13

Date: 1992/10/05; Stress:  1; Step:   371; Simulation step:  371
                  MF iterations:       13; SZ iterations:     13

Date: 1992/10/06; Stress:  1; Step:   372; Simulation step:  372
                  MF iterations:       14; SZ iterations:     14

Date: 1992/10/07; Stress:  1; Step:   373; Simulation step:  373
                  MF iterations:       13; SZ iterations:     13

Date: 1992/10/08; Stress:  1; Step:   374; Simulation step:  374
                  MF iterations:       12; SZ iterations:     12

Date: 1992/10/09; Stress:  1; Step:   375; Simulation step:  375
                  MF iterations:       13; SZ iterations:     13

Date: 1992/10/10; Stress:  1; Step:   376; Simulation step:  376
                  MF iterations:       10; SZ iterations:     10

Date: 1992/10/11; Stress:  1; Step:   377; Simulation step:  377
                  MF iterations:        8; SZ iterations:      8

Date: 1992/10/12; Stress:  1; Step:   378; Simulation step:  378
                  MF iterations:        6; SZ iterations:      6

Date: 1992/10/13; Stress:  1; Step:   379; Simulation step:  379
                  MF iterations:        7; SZ iterations:      7

Date: 1992/10/14; Stress:  1; Step:   380; Simulation step:  380
                  MF iterations:        8; SZ iterations:      8

Date: 1992/10/15; Stress:  1; Step:   381; Simulation step:  381
                  MF iterations:        7; SZ iterations:      7

Date: 1992/10/16; Stress:  1; Step:   382; Simulation step:  382
                  MF iterations:        9; SZ iterations:      9

Date: 1992/10/17; Stress:  1; Step:   383; Simulation step:  383
                  MF iterations:       12; SZ iterations:     12

Date: 1992/10/18; Stress:  1; Step:   384; Simulation step:  384
                  MF iterations:        4; SZ iterations:      4

Date: 1992/10/19; Stress:  1; Step:   385; Simulation step:  385
                  MF iterations:        7; SZ iterations:      7

Date: 1992/10/20; Stress:  1; Step:   386; Simulation step:  386
                  MF iterations:        7; SZ iterations:      7

Date: 1992/10/21; Stress:  1; Step:   387; Simulation step:  387
                  MF iterations:        7; SZ iterations:      7

Date: 1992/10/22; Stress:  1; Step:   388; Simulation step:  388
                  MF iterations:       12; SZ iterations:     12

Date: 1992/10/23; Stress:  1; Step:   389; Simulation step:  389
                  MF iterations:       24; SZ iterations:     24

Date: 1992/10/24; Stress:  1; Step:   390; Simulation step:  390
                  MF iterations:        7; SZ iterations:      7

Date: 1992/10/25; Stress:  1; Step:   391; Simulation step:  391
                  MF iterations:        9; SZ iterations:      9

Date: 1992/10/26; Stress:  1; Step:   392; Simulation step:  392
                  MF iterations:        7; SZ iterations:      7

Date: 1992/10/27; Stress:  1; Step:   393; Simulation step:  393
                  MF iterations:       24; SZ iterations:     24

Date: 1992/10/28; Stress:  1; Step:   394; Simulation step:  394
                  MF iterations:        5; SZ iterations:      5

Date: 1992/10/29; Stress:  1; Step:   395; Simulation step:  395
                  MF iterations:        6; SZ iterations:      6

Date: 1992/10/30; Stress:  1; Step:   396; Simulation step:  396
                  MF iterations:      129; SZ iterations:    129

Date: 1992/10/31; Stress:  1; Step:   397; Simulation step:  397
                  MF iterations:       13; SZ iterations:     13

Date: 1992/11/01; Stress:  1; Step:   398; Simulation step:  398
                  MF iterations:       23; SZ iterations:     23

Date: 1992/11/02; Stress:  1; Step:   399; Simulation step:  399
                  MF iterations:       14; SZ iterations:     14

Date: 1992/11/03; Stress:  1; Step:   400; Simulation step:  400
                  MF iterations:       22; SZ iterations:     22

Date: 1992/11/04; Stress:  1; Step:   401; Simulation step:  401
                  MF iterations:       18; SZ iterations:     18

Date: 1992/11/05; Stress:  1; Step:   402; Simulation step:  402
                  MF iterations:       18; SZ iterations:     18

Date: 1992/11/06; Stress:  1; Step:   403; Simulation step:  403
                  MF iterations:       17; SZ iterations:     17

Date: 1992/11/07; Stress:  1; Step:   404; Simulation step:  404
                  MF iterations:       16; SZ iterations:     16

Date: 1992/11/08; Stress:  1; Step:   405; Simulation step:  405
                  MF iterations:       14; SZ iterations:     14

Date: 1992/11/09; Stress:  1; Step:   406; Simulation step:  406
                  MF iterations:       12; SZ iterations:     12

Date: 1992/11/10; Stress:  1; Step:   407; Simulation step:  407
                  MF iterations:       11; SZ iterations:     11

Date: 1992/11/11; Stress:  1; Step:   408; Simulation step:  408
                  MF iterations:       11; SZ iterations:     11

Date: 1992/11/12; Stress:  1; Step:   409; Simulation step:  409
                  MF iterations:       16; SZ iterations:     16

Date: 1992/11/13; Stress:  1; Step:   410; Simulation step:  410
                  MF iterations:       17; SZ iterations:     17

Date: 1992/11/14; Stress:  1; Step:   411; Simulation step:  411
                  MF iterations:       18; SZ iterations:     18

Date: 1992/11/15; Stress:  1; Step:   412; Simulation step:  412
                  MF iterations:       11; SZ iterations:     11

Date: 1992/11/16; Stress:  1; Step:   413; Simulation step:  413
                  MF iterations:       12; SZ iterations:     12

Date: 1992/11/17; Stress:  1; Step:   414; Simulation step:  414
                  MF iterations:       11; SZ iterations:     11

Date: 1992/11/18; Stress:  1; Step:   415; Simulation step:  415
                  MF iterations:       11; SZ iterations:     11

Date: 1992/11/19; Stress:  1; Step:   416; Simulation step:  416
                  MF iterations:        7; SZ iterations:      7

Date: 1992/11/20; Stress:  1; Step:   417; Simulation step:  417
                  MF iterations:        3; SZ iterations:      3

Date: 1992/11/21; Stress:  1; Step:   418; Simulation step:  418
                  MF iterations:        6; SZ iterations:      6

Date: 1992/11/22; Stress:  1; Step:   419; Simulation step:  419
                  MF iterations:        3; SZ iterations:      3

Date: 1992/11/23; Stress:  1; Step:   420; Simulation step:  420
                  MF iterations:        4; SZ iterations:      4

Date: 1992/11/24; Stress:  1; Step:   421; Simulation step:  421
                  MF iterations:        4; SZ iterations:      4

Date: 1992/11/25; Stress:  1; Step:   422; Simulation step:  422
                  MF iterations:        9; SZ iterations:      9

Date: 1992/11/26; Stress:  1; Step:   423; Simulation step:  423
                  MF iterations:        7; SZ iterations:      7

Date: 1992/11/27; Stress:  1; Step:   424; Simulation step:  424
                  MF iterations:        9; SZ iterations:      9

Date: 1992/11/28; Stress:  1; Step:   425; Simulation step:  425
                  MF iterations:        6; SZ iterations:      6

Date: 1992/11/29; Stress:  1; Step:   426; Simulation step:  426
                  MF iterations:        8; SZ iterations:      8

Date: 1992/11/30; Stress:  1; Step:   427; Simulation step:  427
                  MF iterations:        9; SZ iterations:      9

Date: 1992/12/01; Stress:  1; Step:   428; Simulation step:  428
                  MF iterations:       14; SZ iterations:     14

Date: 1992/12/02; Stress:  1; Step:   429; Simulation step:  429
                  MF iterations:        5; SZ iterations:      5

Date: 1992/12/03; Stress:  1; Step:   430; Simulation step:  430
                  MF iterations:       77; SZ iterations:     77

Date: 1992/12/04; Stress:  1; Step:   431; Simulation step:  431
                  MF iterations:        7; SZ iterations:      7

Date: 1992/12/05; Stress:  1; Step:   432; Simulation step:  432
                  MF iterations:        6; SZ iterations:      6

Date: 1992/12/06; Stress:  1; Step:   433; Simulation step:  433
                  MF iterations:        5; SZ iterations:      5

Date: 1992/12/07; Stress:  1; Step:   434; Simulation step:  434
                  MF iterations:      123; SZ iterations:    123

Date: 1992/12/08; Stress:  1; Step:   435; Simulation step:  435
                  MF iterations:        5; SZ iterations:      5

Date: 1992/12/09; Stress:  1; Step:   436; Simulation step:  436
                  MF iterations:       19; SZ iterations:     19

Date: 1992/12/10; Stress:  1; Step:   437; Simulation step:  437
                  MF iterations:       17; SZ iterations:     17

Date: 1992/12/11; Stress:  1; Step:   438; Simulation step:  438
                  MF iterations:        4; SZ iterations:      4

Date: 1992/12/12; Stress:  1; Step:   439; Simulation step:  439
                  MF iterations:        6; SZ iterations:      6

Date: 1992/12/13; Stress:  1; Step:   440; Simulation step:  440
                  MF iterations:       11; SZ iterations:     11

Date: 1992/12/14; Stress:  1; Step:   441; Simulation step:  441
                  MF iterations:       16; SZ iterations:     16

Date: 1992/12/15; Stress:  1; Step:   442; Simulation step:  442
                  MF iterations:       14; SZ iterations:     14

Date: 1992/12/16; Stress:  1; Step:   443; Simulation step:  443
                  MF iterations:       13; SZ iterations:     13

Date: 1992/12/17; Stress:  1; Step:   444; Simulation step:  444
                  MF iterations:        9; SZ iterations:      9

Date: 1992/12/18; Stress:  1; Step:   445; Simulation step:  445
                  MF iterations:        9; SZ iterations:      9

Date: 1992/12/19; Stress:  1; Step:   446; Simulation step:  446
                  MF iterations:        9; SZ iterations:      9

Date: 1992/12/20; Stress:  1; Step:   447; Simulation step:  447
                  MF iterations:        8; SZ iterations:      8

Date: 1992/12/21; Stress:  1; Step:   448; Simulation step:  448
                  MF iterations:        8; SZ iterations:      8

Date: 1992/12/22; Stress:  1; Step:   449; Simulation step:  449
                  MF iterations:       11; SZ iterations:     11

Date: 1992/12/23; Stress:  1; Step:   450; Simulation step:  450
                  MF iterations:       17; SZ iterations:     17

Date: 1992/12/24; Stress:  1; Step:   451; Simulation step:  451
                  MF iterations:       13; SZ iterations:     13

Date: 1992/12/25; Stress:  1; Step:   452; Simulation step:  452
                  MF iterations:        8; SZ iterations:      8

Date: 1992/12/26; Stress:  1; Step:   453; Simulation step:  453
                  MF iterations:       15; SZ iterations:     15

Date: 1992/12/27; Stress:  1; Step:   454; Simulation step:  454
                  MF iterations:       11; SZ iterations:     11

Date: 1992/12/28; Stress:  1; Step:   455; Simulation step:  455
                  MF iterations:        8; SZ iterations:      8

Date: 1992/12/29; Stress:  1; Step:   456; Simulation step:  456
                  MF iterations:       54; SZ iterations:     54

Date: 1992/12/30; Stress:  1; Step:   457; Simulation step:  457
                  MF iterations:       16; SZ iterations:     16

Date: 1992/12/31; Stress:  1; Step:   458; Simulation step:  458
                  MF iterations:        4; SZ iterations:      4

Date: 1993/01/01; Stress:  1; Step:   459; Simulation step:  459
                  MF iterations:        7; SZ iterations:      7

Date: 1993/01/02; Stress:  1; Step:   460; Simulation step:  460
                  MF iterations:        9; SZ iterations:      9

Date: 1993/01/03; Stress:  1; Step:   461; Simulation step:  461
                  MF iterations:        5; SZ iterations:      5

Date: 1993/01/04; Stress:  1; Step:   462; Simulation step:  462
                  MF iterations:        3; SZ iterations:      3

Date: 1993/01/05; Stress:  1; Step:   463; Simulation step:  463
                  MF iterations:        6; SZ iterations:      6

Date: 1993/01/06; Stress:  1; Step:   464; Simulation step:  464
                  MF iterations:       10; SZ iterations:     10

Date: 1993/01/07; Stress:  1; Step:   465; Simulation step:  465
                  MF iterations:       14; SZ iterations:     14

Date: 1993/01/08; Stress:  1; Step:   466; Simulation step:  466
                  MF iterations:        3; SZ iterations:      3

Date: 1993/01/09; Stress:  1; Step:   467; Simulation step:  467
                  MF iterations:        5; SZ iterations:      5

Date: 1993/01/10; Stress:  1; Step:   468; Simulation step:  468
                  MF iterations:       14; SZ iterations:     14

Date: 1993/01/11; Stress:  1; Step:   469; Simulation step:  469
                  MF iterations:        4; SZ iterations:      4

Date: 1993/01/12; Stress:  1; Step:   470; Simulation step:  470
                  MF iterations:        7; SZ iterations:      7

***TIME STEP FAILED TO CONVERGE - Date: 1993/01/13 number:     3

Date: 1993/01/13; Stress:  1; Step:   471; Simulation step:  471
                  MF iterations:      200; SZ iterations:    200

Date: 1993/01/14; Stress:  1; Step:   472; Simulation step:  472
                  MF iterations:       14; SZ iterations:     14

Date: 1993/01/15; Stress:  1; Step:   473; Simulation step:  473
                  MF iterations:      106; SZ iterations:    106

Date: 1993/01/16; Stress:  1; Step:   474; Simulation step:  474
                  MF iterations:       26; SZ iterations:     26

Date: 1993/01/17; Stress:  1; Step:   475; Simulation step:  475
                  MF iterations:        4; SZ iterations:      4

Date: 1993/01/18; Stress:  1; Step:   476; Simulation step:  476
                  MF iterations:       41; SZ iterations:     41

Date: 1993/01/19; Stress:  1; Step:   477; Simulation step:  477
                  MF iterations:      106; SZ iterations:    106

Date: 1993/01/20; Stress:  1; Step:   478; Simulation step:  478
                  MF iterations:       10; SZ iterations:     10

Date: 1993/01/21; Stress:  1; Step:   479; Simulation step:  479
                  MF iterations:        6; SZ iterations:      6

Date: 1993/01/22; Stress:  1; Step:   480; Simulation step:  480
                  MF iterations:        5; SZ iterations:      5

Date: 1993/01/23; Stress:  1; Step:   481; Simulation step:  481
                  MF iterations:        4; SZ iterations:      4

Date: 1993/01/24; Stress:  1; Step:   482; Simulation step:  482
                  MF iterations:        4; SZ iterations:      4

Date: 1993/01/25; Stress:  1; Step:   483; Simulation step:  483
                  MF iterations:        4; SZ iterations:      4

Date: 1993/01/26; Stress:  1; Step:   484; Simulation step:  484
                  MF iterations:        4; SZ iterations:      4

Date: 1993/01/27; Stress:  1; Step:   485; Simulation step:  485
                  MF iterations:       14; SZ iterations:     14

Date: 1993/01/28; Stress:  1; Step:   486; Simulation step:  486
                  MF iterations:        5; SZ iterations:      5

Date: 1993/01/29; Stress:  1; Step:   487; Simulation step:  487
                  MF iterations:        7; SZ iterations:      7

Date: 1993/01/30; Stress:  1; Step:   488; Simulation step:  488
                  MF iterations:        6; SZ iterations:      6

Date: 1993/01/31; Stress:  1; Step:   489; Simulation step:  489
                  MF iterations:       51; SZ iterations:     51

Date: 1993/02/01; Stress:  1; Step:   490; Simulation step:  490
                  MF iterations:        8; SZ iterations:      8

Date: 1993/02/02; Stress:  1; Step:   491; Simulation step:  491
                  MF iterations:        8; SZ iterations:      8

Date: 1993/02/03; Stress:  1; Step:   492; Simulation step:  492
                  MF iterations:        5; SZ iterations:      5

Date: 1993/02/04; Stress:  1; Step:   493; Simulation step:  493
                  MF iterations:        8; SZ iterations:      8

Date: 1993/02/05; Stress:  1; Step:   494; Simulation step:  494
                  MF iterations:       36; SZ iterations:     36

Date: 1993/02/06; Stress:  1; Step:   495; Simulation step:  495
                  MF iterations:       47; SZ iterations:     47

Date: 1993/02/07; Stress:  1; Step:   496; Simulation step:  496
                  MF iterations:        9; SZ iterations:      9

Date: 1993/02/08; Stress:  1; Step:   497; Simulation step:  497
                  MF iterations:       39; SZ iterations:     39

Date: 1993/02/09; Stress:  1; Step:   498; Simulation step:  498
                  MF iterations:        5; SZ iterations:      5

Date: 1993/02/10; Stress:  1; Step:   499; Simulation step:  499
                  MF iterations:       10; SZ iterations:     10

Date: 1993/02/11; Stress:  1; Step:   500; Simulation step:  500
                  MF iterations:       23; SZ iterations:     23

Date: 1993/02/12; Stress:  1; Step:   501; Simulation step:  501
                  MF iterations:        5; SZ iterations:      5

Date: 1993/02/13; Stress:  1; Step:   502; Simulation step:  502
                  MF iterations:        4; SZ iterations:      4

Date: 1993/02/14; Stress:  1; Step:   503; Simulation step:  503
                  MF iterations:        7; SZ iterations:      7

Date: 1993/02/15; Stress:  1; Step:   504; Simulation step:  504
                  MF iterations:        7; SZ iterations:      7

Date: 1993/02/16; Stress:  1; Step:   505; Simulation step:  505
                  MF iterations:       11; SZ iterations:     11

Date: 1993/02/17; Stress:  1; Step:   506; Simulation step:  506
                  MF iterations:        7; SZ iterations:      7

Date: 1993/02/18; Stress:  1; Step:   507; Simulation step:  507
                  MF iterations:        5; SZ iterations:      5

Date: 1993/02/19; Stress:  1; Step:   508; Simulation step:  508
                  MF iterations:      127; SZ iterations:    127

Date: 1993/02/20; Stress:  1; Step:   509; Simulation step:  509
                  MF iterations:       15; SZ iterations:     15

Date: 1993/02/21; Stress:  1; Step:   510; Simulation step:  510
                  MF iterations:       95; SZ iterations:     95

Date: 1993/02/22; Stress:  1; Step:   511; Simulation step:  511
                  MF iterations:        6; SZ iterations:      6

Date: 1993/02/23; Stress:  1; Step:   512; Simulation step:  512
                  MF iterations:        4; SZ iterations:      4

Date: 1993/02/24; Stress:  1; Step:   513; Simulation step:  513
                  MF iterations:        4; SZ iterations:      4

Date: 1993/02/25; Stress:  1; Step:   514; Simulation step:  514
                  MF iterations:       12; SZ iterations:     12

Date: 1993/02/26; Stress:  1; Step:   515; Simulation step:  515
                  MF iterations:       22; SZ iterations:     22

Date: 1993/02/27; Stress:  1; Step:   516; Simulation step:  516
                  MF iterations:       16; SZ iterations:     16

Date: 1993/02/28; Stress:  1; Step:   517; Simulation step:  517
                  MF iterations:       85; SZ iterations:     85

Date: 1993/03/01; Stress:  1; Step:   518; Simulation step:  518
                  MF iterations:        4; SZ iterations:      4

Date: 1993/03/02; Stress:  1; Step:   519; Simulation step:  519
                  MF iterations:        5; SZ iterations:      5

Date: 1993/03/03; Stress:  1; Step:   520; Simulation step:  520
                  MF iterations:        4; SZ iterations:      4

Date: 1993/03/04; Stress:  1; Step:   521; Simulation step:  521
                  MF iterations:       28; SZ iterations:     28

Date: 1993/03/05; Stress:  1; Step:   522; Simulation step:  522
                  MF iterations:       20; SZ iterations:     20

Date: 1993/03/06; Stress:  1; Step:   523; Simulation step:  523
                  MF iterations:       12; SZ iterations:     12

Date: 1993/03/07; Stress:  1; Step:   524; Simulation step:  524
                  MF iterations:        4; SZ iterations:      4

Date: 1993/03/08; Stress:  1; Step:   525; Simulation step:  525
                  MF iterations:        5; SZ iterations:      5

Date: 1993/03/09; Stress:  1; Step:   526; Simulation step:  526
                  MF iterations:        7; SZ iterations:      7

Date: 1993/03/10; Stress:  1; Step:   527; Simulation step:  527
                  MF iterations:        4; SZ iterations:      4

Date: 1993/03/11; Stress:  1; Step:   528; Simulation step:  528
                  MF iterations:        7; SZ iterations:      7

Date: 1993/03/12; Stress:  1; Step:   529; Simulation step:  529
                  MF iterations:       11; SZ iterations:     11

Date: 1993/03/13; Stress:  1; Step:   530; Simulation step:  530
                  MF iterations:        4; SZ iterations:      4

Date: 1993/03/14; Stress:  1; Step:   531; Simulation step:  531
                  MF iterations:        4; SZ iterations:      4

Date: 1993/03/15; Stress:  1; Step:   532; Simulation step:  532
                  MF iterations:       15; SZ iterations:     15

Date: 1993/03/16; Stress:  1; Step:   533; Simulation step:  533
                  MF iterations:       81; SZ iterations:     81

Date: 1993/03/17; Stress:  1; Step:   534; Simulation step:  534
                  MF iterations:       13; SZ iterations:     13

Date: 1993/03/18; Stress:  1; Step:   535; Simulation step:  535
                  MF iterations:       19; SZ iterations:     19

Date: 1993/03/19; Stress:  1; Step:   536; Simulation step:  536
                  MF iterations:        7; SZ iterations:      7

Date: 1993/03/20; Stress:  1; Step:   537; Simulation step:  537
                  MF iterations:       10; SZ iterations:     10

Date: 1993/03/21; Stress:  1; Step:   538; Simulation step:  538
                  MF iterations:        7; SZ iterations:      7

Date: 1993/03/22; Stress:  1; Step:   539; Simulation step:  539
                  MF iterations:        5; SZ iterations:      5

Date: 1993/03/23; Stress:  1; Step:   540; Simulation step:  540
                  MF iterations:       20; SZ iterations:     20

Date: 1993/03/24; Stress:  1; Step:   541; Simulation step:  541
                  MF iterations:        5; SZ iterations:      5

Date: 1993/03/25; Stress:  1; Step:   542; Simulation step:  542
                  MF iterations:       61; SZ iterations:     61

Date: 1993/03/26; Stress:  1; Step:   543; Simulation step:  543
                  MF iterations:        4; SZ iterations:      4

Date: 1993/03/27; Stress:  1; Step:   544; Simulation step:  544
                  MF iterations:        5; SZ iterations:      5

Date: 1993/03/28; Stress:  1; Step:   545; Simulation step:  545
                  MF iterations:        4; SZ iterations:      4

Date: 1993/03/29; Stress:  1; Step:   546; Simulation step:  546
                  MF iterations:        4; SZ iterations:      4

Date: 1993/03/30; Stress:  1; Step:   547; Simulation step:  547
                  MF iterations:        5; SZ iterations:      5

Date: 1993/03/31; Stress:  1; Step:   548; Simulation step:  548
                  MF iterations:        6; SZ iterations:      6

Date: 1993/04/01; Stress:  1; Step:   549; Simulation step:  549
                  MF iterations:        8; SZ iterations:      8

Date: 1993/04/02; Stress:  1; Step:   550; Simulation step:  550
                  MF iterations:       10; SZ iterations:     10

Date: 1993/04/03; Stress:  1; Step:   551; Simulation step:  551
                  MF iterations:       22; SZ iterations:     22

Date: 1993/04/04; Stress:  1; Step:   552; Simulation step:  552
                  MF iterations:       14; SZ iterations:     14

Date: 1993/04/05; Stress:  1; Step:   553; Simulation step:  553
                  MF iterations:       12; SZ iterations:     12

Date: 1993/04/06; Stress:  1; Step:   554; Simulation step:  554
                  MF iterations:       11; SZ iterations:     11

Date: 1993/04/07; Stress:  1; Step:   555; Simulation step:  555
                  MF iterations:       13; SZ iterations:     13

Date: 1993/04/08; Stress:  1; Step:   556; Simulation step:  556
                  MF iterations:        8; SZ iterations:      8

Date: 1993/04/09; Stress:  1; Step:   557; Simulation step:  557
                  MF iterations:       51; SZ iterations:     51

Date: 1993/04/10; Stress:  1; Step:   558; Simulation step:  558
                  MF iterations:       74; SZ iterations:     74

Date: 1993/04/11; Stress:  1; Step:   559; Simulation step:  559
                  MF iterations:       74; SZ iterations:     74

Date: 1993/04/12; Stress:  1; Step:   560; Simulation step:  560
                  MF iterations:       87; SZ iterations:     87

Date: 1993/04/13; Stress:  1; Step:   561; Simulation step:  561
                  MF iterations:       74; SZ iterations:     74

Date: 1993/04/14; Stress:  1; Step:   562; Simulation step:  562
                  MF iterations:       74; SZ iterations:     74

Date: 1993/04/15; Stress:  1; Step:   563; Simulation step:  563
                  MF iterations:       74; SZ iterations:     74

Date: 1993/04/16; Stress:  1; Step:   564; Simulation step:  564
                  MF iterations:       74; SZ iterations:     74

Date: 1993/04/17; Stress:  1; Step:   565; Simulation step:  565
                  MF iterations:       74; SZ iterations:     74

Date: 1993/04/18; Stress:  1; Step:   566; Simulation step:  566
                  MF iterations:       74; SZ iterations:     74

Date: 1993/04/19; Stress:  1; Step:   567; Simulation step:  567
                  MF iterations:       74; SZ iterations:     74

Date: 1993/04/20; Stress:  1; Step:   568; Simulation step:  568
                  MF iterations:       74; SZ iterations:     74

Date: 1993/04/21; Stress:  1; Step:   569; Simulation step:  569
                  MF iterations:       74; SZ iterations:     74

[...]

Date: 2015/05/17; Stress:  1; Step:  8630; Simulation step: 8630
                  MF iterations:       12; SZ iterations:     12

Date: 2015/05/18; Stress:  1; Step:  8631; Simulation step: 8631
                  MF iterations:       13; SZ iterations:     13

Date: 2015/05/19; Stress:  1; Step:  8632; Simulation step: 8632
                  MF iterations:       10; SZ iterations:     10

Date: 2015/05/20; Stress:  1; Step:  8633; Simulation step: 8633
                  MF iterations:       12; SZ iterations:     12

Date: 2015/05/21; Stress:  1; Step:  8634; Simulation step: 8634
                  MF iterations:       11; SZ iterations:     11

Date: 2015/05/22; Stress:  1; Step:  8635; Simulation step: 8635
                  MF iterations:       12; SZ iterations:     12

Date: 2015/05/23; Stress:  1; Step:  8636; Simulation step: 8636
                  MF iterations:       11; SZ iterations:     11

Date: 2015/05/24; Stress:  1; Step:  8637; Simulation step: 8637
                  MF iterations:       11; SZ iterations:     11

Date: 2015/05/25; Stress:  1; Step:  8638; Simulation step: 8638
                  MF iterations:       16; SZ iterations:     16

Date: 2015/05/26; Stress:  1; Step:  8639; Simulation step: 8639
                  MF iterations:      113; SZ iterations:    113

Date: 2015/05/27; Stress:  1; Step:  8640; Simulation step: 8640
                  MF iterations:       10; SZ iterations:     10

Date: 2015/05/28; Stress:  1; Step:  8641; Simulation step: 8641
                  MF iterations:       15; SZ iterations:     15

Date: 2015/05/29; Stress:  1; Step:  8642; Simulation step: 8642
                  MF iterations:       14; SZ iterations:     14

Date: 2015/05/30; Stress:  1; Step:  8643; Simulation step: 8643
                  MF iterations:       12; SZ iterations:     12

Date: 2015/05/31; Stress:  1; Step:  8644; Simulation step: 8644
                  MF iterations:       13; SZ iterations:     13

Date: 2015/06/01; Stress:  1; Step:  8645; Simulation step: 8645
                  MF iterations:       11; SZ iterations:     11

Date: 2015/06/02; Stress:  1; Step:  8646; Simulation step: 8646
                  MF iterations:       12; SZ iterations:     12

Date: 2015/06/03; Stress:  1; Step:  8647; Simulation step: 8647
                  MF iterations:        9; SZ iterations:      9

Date: 2015/06/04; Stress:  1; Step:  8648; Simulation step: 8648
                  MF iterations:       14; SZ iterations:     14

Date: 2015/06/05; Stress:  1; Step:  8649; Simulation step: 8649
                  MF iterations:       12; SZ iterations:     12

Date: 2015/06/06; Stress:  1; Step:  8650; Simulation step: 8650
                  MF iterations:       11; SZ iterations:     11

Date: 2015/06/07; Stress:  1; Step:  8651; Simulation step: 8651
                  MF iterations:       20; SZ iterations:     20

Date: 2015/06/08; Stress:  1; Step:  8652; Simulation step: 8652
                  MF iterations:       27; SZ iterations:     27

Date: 2015/06/09; Stress:  1; Step:  8653; Simulation step: 8653
                  MF iterations:       24; SZ iterations:     24

Date: 2015/06/10; Stress:  1; Step:  8654; Simulation step: 8654
                  MF iterations:       25; SZ iterations:     25

Date: 2015/06/11; Stress:  1; Step:  8655; Simulation step: 8655
                  MF iterations:       20; SZ iterations:     20

Date: 2015/06/12; Stress:  1; Step:  8656; Simulation step: 8656
                  MF iterations:       25; SZ iterations:     25

Date: 2015/06/13; Stress:  1; Step:  8657; Simulation step: 8657
                  MF iterations:       22; SZ iterations:     22

Date: 2015/06/14; Stress:  1; Step:  8658; Simulation step: 8658
                  MF iterations:       19; SZ iterations:     19

Date: 2015/06/15; Stress:  1; Step:  8659; Simulation step: 8659
                  MF iterations:       36; SZ iterations:     36

Date: 2015/06/16; Stress:  1; Step:  8660; Simulation step: 8660
                  MF iterations:       45; SZ iterations:     45

Date: 2015/06/17; Stress:  1; Step:  8661; Simulation step: 8661
                  MF iterations:      143; SZ iterations:    143

Date: 2015/06/18; Stress:  1; Step:  8662; Simulation step: 8662
                  MF iterations:       32; SZ iterations:     32

Date: 2015/06/19; Stress:  1; Step:  8663; Simulation step: 8663
                  MF iterations:       62; SZ iterations:     62

Date: 2015/06/20; Stress:  1; Step:  8664; Simulation step: 8664
                  MF iterations:       63; SZ iterations:     63

Date: 2015/06/21; Stress:  1; Step:  8665; Simulation step: 8665
                  MF iterations:       60; SZ iterations:     60

Date: 2015/06/22; Stress:  1; Step:  8666; Simulation step: 8666
                  MF iterations:       54; SZ iterations:     54

Date: 2015/06/23; Stress:  1; Step:  8667; Simulation step: 8667
                  MF iterations:       46; SZ iterations:     46

Date: 2015/06/24; Stress:  1; Step:  8668; Simulation step: 8668
                  MF iterations:       34; SZ iterations:     34

Date: 2015/06/25; Stress:  1; Step:  8669; Simulation step: 8669
                  MF iterations:       27; SZ iterations:     27

Date: 2015/06/26; Stress:  1; Step:  8670; Simulation step: 8670
                  MF iterations:       23; SZ iterations:     23

Date: 2015/06/27; Stress:  1; Step:  8671; Simulation step: 8671
                  MF iterations:       16; SZ iterations:     16

Date: 2015/06/28; Stress:  1; Step:  8672; Simulation step: 8672
                  MF iterations:       22; SZ iterations:     22

Date: 2015/06/29; Stress:  1; Step:  8673; Simulation step: 8673
                  MF iterations:       13; SZ iterations:     13

Date: 2015/06/30; Stress:  1; Step:  8674; Simulation step: 8674
                  MF iterations:       21; SZ iterations:     21

Date: 2015/07/01; Stress:  1; Step:  8675; Simulation step: 8675
                  MF iterations:       16; SZ iterations:     16

Date: 2015/07/02; Stress:  1; Step:  8676; Simulation step: 8676
                  MF iterations:       14; SZ iterations:     14

Date: 2015/07/03; Stress:  1; Step:  8677; Simulation step: 8677
                  MF iterations:       20; SZ iterations:     20

Date: 2015/07/04; Stress:  1; Step:  8678; Simulation step: 8678
                  MF iterations:       12; SZ iterations:     12

Date: 2015/07/05; Stress:  1; Step:  8679; Simulation step: 8679
                  MF iterations:        7; SZ iterations:      7

Date: 2015/07/06; Stress:  1; Step:  8680; Simulation step: 8680
                  MF iterations:       11; SZ iterations:     11

Date: 2015/07/07; Stress:  1; Step:  8681; Simulation step: 8681
                  MF iterations:        8; SZ iterations:      8

Date: 2015/07/08; Stress:  1; Step:  8682; Simulation step: 8682
                  MF iterations:       11; SZ iterations:     11

Date: 2015/07/09; Stress:  1; Step:  8683; Simulation step: 8683
                  MF iterations:       11; SZ iterations:     11

Date: 2015/07/10; Stress:  1; Step:  8684; Simulation step: 8684
                  MF iterations:       10; SZ iterations:     10

Date: 2015/07/11; Stress:  1; Step:  8685; Simulation step: 8685
                  MF iterations:       10; SZ iterations:     10

Date: 2015/07/12; Stress:  1; Step:  8686; Simulation step: 8686
                  MF iterations:       18; SZ iterations:     18

Date: 2015/07/13; Stress:  1; Step:  8687; Simulation step: 8687
                  MF iterations:        4; SZ iterations:      4

Date: 2015/07/14; Stress:  1; Step:  8688; Simulation step: 8688
                  MF iterations:        9; SZ iterations:      9

Date: 2015/07/15; Stress:  1; Step:  8689; Simulation step: 8689
                  MF iterations:        9; SZ iterations:      9

Date: 2015/07/16; Stress:  1; Step:  8690; Simulation step: 8690
                  MF iterations:       12; SZ iterations:     12

Date: 2015/07/17; Stress:  1; Step:  8691; Simulation step: 8691
                  MF iterations:       21; SZ iterations:     21

Date: 2015/07/18; Stress:  1; Step:  8692; Simulation step: 8692
                  MF iterations:       11; SZ iterations:     11

Date: 2015/07/19; Stress:  1; Step:  8693; Simulation step: 8693
                  MF iterations:       14; SZ iterations:     14

Date: 2015/07/20; Stress:  1; Step:  8694; Simulation step: 8694
                  MF iterations:       20; SZ iterations:     20

Date: 2015/07/21; Stress:  1; Step:  8695; Simulation step: 8695
                  MF iterations:       14; SZ iterations:     14

Date: 2015/07/22; Stress:  1; Step:  8696; Simulation step: 8696
                  MF iterations:       10; SZ iterations:     10

Date: 2015/07/23; Stress:  1; Step:  8697; Simulation step: 8697
                  MF iterations:        5; SZ iterations:      5

Date: 2015/07/24; Stress:  1; Step:  8698; Simulation step: 8698
                  MF iterations:       14; SZ iterations:     14

Date: 2015/07/25; Stress:  1; Step:  8699; Simulation step: 8699
                  MF iterations:       13; SZ iterations:     13

Date: 2015/07/26; Stress:  1; Step:  8700; Simulation step: 8700
                  MF iterations:       11; SZ iterations:     11

***TIME STEP FAILED TO CONVERGE - Date: 2015/07/27 number:   635

Date: 2015/07/27; Stress:  1; Step:  8701; Simulation step: 8701
                  MF iterations:      200; SZ iterations:    200

***TIME STEP FAILED TO CONVERGE - Date: 2015/07/28 number:   636

Date: 2015/07/28; Stress:  1; Step:  8702; Simulation step: 8702
                  MF iterations:      200; SZ iterations:    200

Date: 2015/07/29; Stress:  1; Step:  8703; Simulation step: 8703
                  MF iterations:      196; SZ iterations:    196

Date: 2015/07/30; Stress:  1; Step:  8704; Simulation step: 8704
                  MF iterations:       31; SZ iterations:     31

Date: 2015/07/31; Stress:  1; Step:  8705; Simulation step: 8705
                  MF iterations:       19; SZ iterations:     19

Date: 2015/08/01; Stress:  1; Step:  8706; Simulation step: 8706
                  MF iterations:        7; SZ iterations:      7

Date: 2015/08/02; Stress:  1; Step:  8707; Simulation step: 8707
                  MF iterations:        4; SZ iterations:      4

Date: 2015/08/03; Stress:  1; Step:  8708; Simulation step: 8708
                  MF iterations:        4; SZ iterations:      4

Date: 2015/08/04; Stress:  1; Step:  8709; Simulation step: 8709
                  MF iterations:       34; SZ iterations:     34

Date: 2015/08/05; Stress:  1; Step:  8710; Simulation step: 8710
                  MF iterations:       34; SZ iterations:     34

Date: 2015/08/06; Stress:  1; Step:  8711; Simulation step: 8711
                  MF iterations:       28; SZ iterations:     28

Date: 2015/08/07; Stress:  1; Step:  8712; Simulation step: 8712
                  MF iterations:       40; SZ iterations:     40

Date: 2015/08/08; Stress:  1; Step:  8713; Simulation step: 8713
                  MF iterations:       17; SZ iterations:     17

Date: 2015/08/09; Stress:  1; Step:  8714; Simulation step: 8714
                  MF iterations:       21; SZ iterations:     21

Date: 2015/08/10; Stress:  1; Step:  8715; Simulation step: 8715
                  MF iterations:       21; SZ iterations:     21

Date: 2015/08/11; Stress:  1; Step:  8716; Simulation step: 8716
                  MF iterations:       18; SZ iterations:     18

Date: 2015/08/12; Stress:  1; Step:  8717; Simulation step: 8717
                  MF iterations:       16; SZ iterations:     16

Date: 2015/08/13; Stress:  1; Step:  8718; Simulation step: 8718
                  MF iterations:       15; SZ iterations:     15

Date: 2015/08/14; Stress:  1; Step:  8719; Simulation step: 8719
                  MF iterations:       13; SZ iterations:     13

Date: 2015/08/15; Stress:  1; Step:  8720; Simulation step: 8720
                  MF iterations:       14; SZ iterations:     14

Date: 2015/08/16; Stress:  1; Step:  8721; Simulation step: 8721
                  MF iterations:       17; SZ iterations:     17

Date: 2015/08/17; Stress:  1; Step:  8722; Simulation step: 8722
                  MF iterations:       19; SZ iterations:     19

Date: 2015/08/18; Stress:  1; Step:  8723; Simulation step: 8723
                  MF iterations:       13; SZ iterations:     13

Date: 2015/08/19; Stress:  1; Step:  8724; Simulation step: 8724
                  MF iterations:       12; SZ iterations:     12

Date: 2015/08/20; Stress:  1; Step:  8725; Simulation step: 8725
                  MF iterations:       14; SZ iterations:     14

Date: 2015/08/21; Stress:  1; Step:  8726; Simulation step: 8726
                  MF iterations:       10; SZ iterations:     10

Date: 2015/08/22; Stress:  1; Step:  8727; Simulation step: 8727
                  MF iterations:       25; SZ iterations:     25

Date: 2015/08/23; Stress:  1; Step:  8728; Simulation step: 8728
                  MF iterations:       21; SZ iterations:     21

Date: 2015/08/24; Stress:  1; Step:  8729; Simulation step: 8729
                  MF iterations:       13; SZ iterations:     13

Date: 2015/08/25; Stress:  1; Step:  8730; Simulation step: 8730
                  MF iterations:       14; SZ iterations:     14

Date: 2015/08/26; Stress:  1; Step:  8731; Simulation step: 8731
                  MF iterations:       23; SZ iterations:     23

Date: 2015/08/27; Stress:  1; Step:  8732; Simulation step: 8732
                  MF iterations:       36; SZ iterations:     36

Date: 2015/08/28; Stress:  1; Step:  8733; Simulation step: 8733
                  MF iterations:       14; SZ iterations:     14

Date: 2015/08/29; Stress:  1; Step:  8734; Simulation step: 8734
                  MF iterations:       34; SZ iterations:     34

Date: 2015/08/30; Stress:  1; Step:  8735; Simulation step: 8735
                  MF iterations:       49; SZ iterations:     49

Date: 2015/08/31; Stress:  1; Step:  8736; Simulation step: 8736
                  MF iterations:       46; SZ iterations:     46

Date: 2015/09/01; Stress:  1; Step:  8737; Simulation step: 8737
                  MF iterations:       44; SZ iterations:     44

Date: 2015/09/02; Stress:  1; Step:  8738; Simulation step: 8738
                  MF iterations:       41; SZ iterations:     41

Date: 2015/09/03; Stress:  1; Step:  8739; Simulation step: 8739
                  MF iterations:       40; SZ iterations:     40

Date: 2015/09/04; Stress:  1; Step:  8740; Simulation step: 8740
                  MF iterations:       37; SZ iterations:     37

Date: 2015/09/05; Stress:  1; Step:  8741; Simulation step: 8741
                  MF iterations:       35; SZ iterations:     35

Date: 2015/09/06; Stress:  1; Step:  8742; Simulation step: 8742
                  MF iterations:       34; SZ iterations:     34

Date: 2015/09/07; Stress:  1; Step:  8743; Simulation step: 8743
                  MF iterations:       32; SZ iterations:     32

Date: 2015/09/08; Stress:  1; Step:  8744; Simulation step: 8744
                  MF iterations:       31; SZ iterations:     31

Date: 2015/09/09; Stress:  1; Step:  8745; Simulation step: 8745
                  MF iterations:       29; SZ iterations:     29

Date: 2015/09/10; Stress:  1; Step:  8746; Simulation step: 8746
                  MF iterations:       28; SZ iterations:     28

Date: 2015/09/11; Stress:  1; Step:  8747; Simulation step: 8747
                  MF iterations:       27; SZ iterations:     27

***TIME STEP FAILED TO CONVERGE - Date: 2015/09/12 number:   637

Date: 2015/09/12; Stress:  1; Step:  8748; Simulation step: 8748
                  MF iterations:      200; SZ iterations:    200

Date: 2015/09/13; Stress:  1; Step:  8749; Simulation step: 8749
                  MF iterations:       72; SZ iterations:     72

Date: 2015/09/14; Stress:  1; Step:  8750; Simulation step: 8750
                  MF iterations:       40; SZ iterations:     40

***TIME STEP FAILED TO CONVERGE - Date: 2015/09/15 number:   638

Date: 2015/09/15; Stress:  1; Step:  8751; Simulation step: 8751
                  MF iterations:      200; SZ iterations:    200

Date: 2015/09/16; Stress:  1; Step:  8752; Simulation step: 8752
                  MF iterations:      111; SZ iterations:    111

Date: 2015/09/17; Stress:  1; Step:  8753; Simulation step: 8753
                  MF iterations:       59; SZ iterations:     59

Date: 2015/09/18; Stress:  1; Step:  8754; Simulation step: 8754
                  MF iterations:       57; SZ iterations:     57

Date: 2015/09/19; Stress:  1; Step:  8755; Simulation step: 8755
                  MF iterations:       42; SZ iterations:     42

Date: 2015/09/20; Stress:  1; Step:  8756; Simulation step: 8756
                  MF iterations:       22; SZ iterations:     22

Date: 2015/09/21; Stress:  1; Step:  8757; Simulation step: 8757
                  MF iterations:       36; SZ iterations:     36

Date: 2015/09/22; Stress:  1; Step:  8758; Simulation step: 8758
                  MF iterations:        6; SZ iterations:      6

Date: 2015/09/23; Stress:  1; Step:  8759; Simulation step: 8759
                  MF iterations:       14; SZ iterations:     14

Date: 2015/09/24; Stress:  1; Step:  8760; Simulation step: 8760
                  MF iterations:       35; SZ iterations:     35

Date: 2015/09/25; Stress:  1; Step:  8761; Simulation step: 8761
                  MF iterations:       16; SZ iterations:     16

Date: 2015/09/26; Stress:  1; Step:  8762; Simulation step: 8762
                  MF iterations:       15; SZ iterations:     15

Date: 2015/09/27; Stress:  1; Step:  8763; Simulation step: 8763
                  MF iterations:       48; SZ iterations:     48

Date: 2015/09/28; Stress:  1; Step:  8764; Simulation step: 8764
                  MF iterations:        4; SZ iterations:      4

Date: 2015/09/29; Stress:  1; Step:  8765; Simulation step: 8765
                  MF iterations:        7; SZ iterations:      7

Date: 2015/09/30; Stress:  1; Step:  8766; Simulation step: 8766
                  MF iterations:       18; SZ iterations:     18


 Run end date and time (yyyy/mm/dd hh:mm:ss): 2020/06/25 12:02:02
 Elapsed run time:   1 Days,  2 Hours, 56 Minutes,  9 Seconds

 Number of time steps:   8766;  Number of non-convergence: 638
 MF iterations:        289313;  SZ iterations:          289313
 Average MF iterations: 33.00;  Average SZ iterations:   33.00
 Maximum MF iterations:   200;  Maximum SZ iterations:     200

MF iteration distribution:      0    7  282  496  335  339  413  412  396  476
                              502  461  379  584  376  278  265  210  139  122
                               89  120   75   58   54   54   41   46   32   39
                               35   31   37   22   16   27   23   20   25   18
                               25   10   15   24   19   17   11    5   14   13
                               14   17   14   14   12   14    6    3   11   10
                                4   10    9    3    8    6    8    7    5    4
                                8    7    5   15    3    1    8    9    5 1039



SZ computation distribution:    0    7  282  496  335  339  413  412  396  476
                              502  461  379  584  376  278  265  210  139  122
                               89  120   75   58   54   54   41   46   32   39
                               35   31   37   22   16   27   23   20   25   18
                               25   10   15   24   19   17   11    5   14   13
                               14   17   14   14   12   14    6    3   11   10
                                4   10    9    3    8    6    8    7    5    4
                                8    7    5   15    3    1    8    9    5 1039



 FAILED TO MEET SOLVER CONVERGENCE CRITERIA          638  TIME(S)
Execution elapsed time    0 minutes  0.00 seconds

