1
 SUMMARY VOLUMETRIC BUDGET FOR GSFLOW 
 DATE: 10 01 1991              CUMULATIVE TIME STEP:       1
 MODFLOW STRESS PERIOD      1     CURRENT TIME STEP:       1     ITERATIONS:     227

 -----------------------------------------------------------------------------------

   CUMULATIVE VOLUMES               L**3   RATES FOR THIS TIME STEP           L**3/T
   ------------------                      ------------------------

                                     IN                                         IN
                                     --                                         --
        PRECIPITATION =                            PRECIPITATION =                  
           STREAMFLOW =                               STREAMFLOW =                  
     GW BOUNDARY FLOW =                         GW BOUNDARY FLOW =                  


                                    OUT                                        OUT
                                    ---                                        ---
   EVAPOTRANSPIRATION =        2852830.27     EVAPOTRANSPIRATION =        2852830.27
           STREAMFLOW =                               STREAMFLOW =                  
     GW BOUNDARY FLOW =                         GW BOUNDARY FLOW =                  

   INFLOWS - OUTFLOWS =       -2852830.27     INFLOWS - OUTFLOWS =       -2852830.27
             --------                                   --------

 TOTAL STORAGE CHANGE =       -2833449.89         STORAGE CHANGE =       -2833449.89
       --------------                             --------------
         LAND SURFACE =                             LAND SURFACE =                  
            SOIL ZONE =       -2849497.01              SOIL ZONE =       -2849497.01
     UNSATURATED ZONE =       -7625750.88       UNSATURATED ZONE =       -7625750.88
       SATURATED ZONE =        7641798.00         SATURATED ZONE =        7641798.00

 OVERALL BUDGET ERROR =         -19380.38           BUDGET ERROR =         -19380.38


  PERCENT DISCREPANCY =             -0.68    PERCENT DISCREPANCY =             -0.68



1
 SUMMARY VOLUMETRIC BUDGET FOR GSFLOW 
 DATE: 10 02 1991              CUMULATIVE TIME STEP:       2
 MODFLOW STRESS PERIOD      1     CURRENT TIME STEP:       2     ITERATIONS:      82

 -----------------------------------------------------------------------------------

   CUMULATIVE VOLUMES               L**3   RATES FOR THIS TIME STEP           L**3/T
   ------------------                      ------------------------

                                     IN                                         IN
                                     --                                         --
        PRECIPITATION =                            PRECIPITATION =                  
           STREAMFLOW =                               STREAMFLOW =                  
     GW BOUNDARY FLOW =                         GW BOUNDARY FLOW =                  


                                    OUT                                        OUT
                                    ---                                        ---
   EVAPOTRANSPIRATION =        5995419.58     EVAPOTRANSPIRATION =        3142589.31
           STREAMFLOW =                               STREAMFLOW =                  
     GW BOUNDARY FLOW =                         GW BOUNDARY FLOW =                  

   INFLOWS - OUTFLOWS =       -5995419.58     INFLOWS - OUTFLOWS =       -3142589.31
             --------                                   --------

 TOTAL STORAGE CHANGE =       -5946490.65         STORAGE CHANGE =       -3113040.76
       --------------                             --------------
         LAND SURFACE =                             LAND SURFACE =                  
            SOIL ZONE =       -5982054.45              SOIL ZONE =       -3132557.44
     UNSATURATED ZONE =       -7680375.95       UNSATURATED ZONE =         -54625.07
       SATURATED ZONE =        7715939.75         SATURATED ZONE =          74141.75

 OVERALL BUDGET ERROR =         -48928.93           BUDGET ERROR =         -29548.55


  PERCENT DISCREPANCY =             -0.82    PERCENT DISCREPANCY =             -0.94



1
 SUMMARY VOLUMETRIC BUDGET FOR GSFLOW 
 DATE: 10 03 1991              CUMULATIVE TIME STEP:       3
 MODFLOW STRESS PERIOD      1     CURRENT TIME STEP:       3     ITERATIONS:      75

 -----------------------------------------------------------------------------------

   CUMULATIVE VOLUMES               L**3   RATES FOR THIS TIME STEP           L**3/T
   ------------------                      ------------------------

                                     IN                                         IN
                                     --                                         --
        PRECIPITATION =                            PRECIPITATION =                  
           STREAMFLOW =                               STREAMFLOW =                  
     GW BOUNDARY FLOW =                         GW BOUNDARY FLOW =                  


                                    OUT                                        OUT
                                    ---                                        ---
   EVAPOTRANSPIRATION =        8031058.95     EVAPOTRANSPIRATION =        2035639.37
           STREAMFLOW =                               STREAMFLOW =                  
     GW BOUNDARY FLOW =                         GW BOUNDARY FLOW =                  

   INFLOWS - OUTFLOWS =       -8031058.95     INFLOWS - OUTFLOWS =       -2035639.37
             --------                                   --------

 TOTAL STORAGE CHANGE =       -7952959.30         STORAGE CHANGE =       -2006468.65
       --------------                             --------------
         LAND SURFACE =                             LAND SURFACE =                  
            SOIL ZONE =       -7976731.92              SOIL ZONE =       -1994677.47
     UNSATURATED ZONE =       -7720405.76       UNSATURATED ZONE =         -40029.81
       SATURATED ZONE =        7744178.38         SATURATED ZONE =          28238.62

 OVERALL BUDGET ERROR =         -78099.65           BUDGET ERROR =         -29170.72


  PERCENT DISCREPANCY =             -0.98    PERCENT DISCREPANCY =             -1.44



1
 SUMMARY VOLUMETRIC BUDGET FOR GSFLOW 
 DATE: 10 04 1991              CUMULATIVE TIME STEP:       4
 MODFLOW STRESS PERIOD      1     CURRENT TIME STEP:       4     ITERATIONS:      34

 -----------------------------------------------------------------------------------

   CUMULATIVE VOLUMES               L**3   RATES FOR THIS TIME STEP           L**3/T
   ------------------                      ------------------------

                                     IN                                         IN
                                     --                                         --
        PRECIPITATION =                            PRECIPITATION =                  
           STREAMFLOW =                               STREAMFLOW =                  
     GW BOUNDARY FLOW =                         GW BOUNDARY FLOW =                  


                                    OUT                                        OUT
                                    ---                                        ---
   EVAPOTRANSPIRATION =        9240835.03     EVAPOTRANSPIRATION =        1209776.08
           STREAMFLOW =                               STREAMFLOW =                  
     GW BOUNDARY FLOW =                         GW BOUNDARY FLOW =                  

   INFLOWS - OUTFLOWS =       -9240835.03     INFLOWS - OUTFLOWS =       -1209776.08
             --------                                   --------

 TOTAL STORAGE CHANGE =       -9129071.89         STORAGE CHANGE =       -1176112.59
       --------------                             --------------
         LAND SURFACE =                             LAND SURFACE =                  
            SOIL ZONE =       -9106810.02              SOIL ZONE =       -1130078.11
     UNSATURATED ZONE =       -7752004.77       UNSATURATED ZONE =         -31599.02
       SATURATED ZONE =        7729742.91         SATURATED ZONE =         -14435.47

 OVERALL BUDGET ERROR =        -111763.14           BUDGET ERROR =         -33663.49


  PERCENT DISCREPANCY =             -1.22    PERCENT DISCREPANCY =             -2.82



1
 SUMMARY VOLUMETRIC BUDGET FOR GSFLOW 
 DATE: 10 05 1991              CUMULATIVE TIME STEP:       5
 MODFLOW STRESS PERIOD      1     CURRENT TIME STEP:       5     ITERATIONS:      76

 -----------------------------------------------------------------------------------

   CUMULATIVE VOLUMES               L**3   RATES FOR THIS TIME STEP           L**3/T
   ------------------                      ------------------------

                                     IN                                         IN
                                     --                                         --
        PRECIPITATION =         753400.34          PRECIPITATION =         753400.34
           STREAMFLOW =                               STREAMFLOW =                  
     GW BOUNDARY FLOW =                         GW BOUNDARY FLOW =                  


                                    OUT                                        OUT
                                    ---                                        ---
   EVAPOTRANSPIRATION =        1.0211D+07     EVAPOTRANSPIRATION =         970386.20
           STREAMFLOW =              0.03             STREAMFLOW =              0.03
     GW BOUNDARY FLOW =                         GW BOUNDARY FLOW =                  

   INFLOWS - OUTFLOWS =       -9457820.92     INFLOWS - OUTFLOWS =        -216985.89
             --------                                   --------

 TOTAL STORAGE CHANGE =       -9320160.79         STORAGE CHANGE =        -191088.90
       --------------                             --------------
         LAND SURFACE =         307010.00           LAND SURFACE =         307010.00
            SOIL ZONE =       -9531593.81              SOIL ZONE =        -424783.79
     UNSATURATED ZONE =       -7776855.60       UNSATURATED ZONE =         -24850.83
       SATURATED ZONE =        7681278.62         SATURATED ZONE =         -48464.28

 OVERALL BUDGET ERROR =        -137660.13           BUDGET ERROR =         -25896.99


  PERCENT DISCREPANCY =             -1.36    PERCENT DISCREPANCY =             -2.70



1
 SUMMARY VOLUMETRIC BUDGET FOR GSFLOW 
 DATE: 10 06 1991              CUMULATIVE TIME STEP:       6
 MODFLOW STRESS PERIOD      1     CURRENT TIME STEP:       6     ITERATIONS:       5

 -----------------------------------------------------------------------------------

   CUMULATIVE VOLUMES               L**3   RATES FOR THIS TIME STEP           L**3/T
   ------------------                      ------------------------

                                     IN                                         IN
                                     --                                         --
        PRECIPITATION =        4821762.42          PRECIPITATION =        4068362.08
           STREAMFLOW =                               STREAMFLOW =                  
     GW BOUNDARY FLOW =                         GW BOUNDARY FLOW =                  


                                    OUT                                        OUT
                                    ---                                        ---
   EVAPOTRANSPIRATION =        1.1931D+07     EVAPOTRANSPIRATION =        1719706.02
           STREAMFLOW =              0.03             STREAMFLOW =                  
     GW BOUNDARY FLOW =                         GW BOUNDARY FLOW =                  

   INFLOWS - OUTFLOWS =       -7109164.86     INFLOWS - OUTFLOWS =        2348656.06
             --------                                   --------

 TOTAL STORAGE CHANGE =       -6960386.09         STORAGE CHANGE =        2359774.70
       --------------                             --------------
         LAND SURFACE =        1964358.35           LAND SURFACE =        1657348.35
            SOIL ZONE =       -8794024.74              SOIL ZONE =         737569.07
     UNSATURATED ZONE =       -7792491.42       UNSATURATED ZONE =         -15635.82
       SATURATED ZONE =        7661771.72         SATURATED ZONE =         -19506.91

 OVERALL BUDGET ERROR =        -148778.77           BUDGET ERROR =         -11118.65


  PERCENT DISCREPANCY =             -1.25    PERCENT DISCREPANCY =             -0.27



1
 SUMMARY VOLUMETRIC BUDGET FOR GSFLOW 
 DATE: 10 07 1991              CUMULATIVE TIME STEP:       7
 MODFLOW STRESS PERIOD      1     CURRENT TIME STEP:       7     ITERATIONS:      65

 -----------------------------------------------------------------------------------

   CUMULATIVE VOLUMES               L**3   RATES FOR THIS TIME STEP           L**3/T
   ------------------                      ------------------------

                                     IN                                         IN
                                     --                                         --
        PRECIPITATION =        1.1703D+07          PRECIPITATION =        6881056.02
           STREAMFLOW =                               STREAMFLOW =                  
     GW BOUNDARY FLOW =                         GW BOUNDARY FLOW =                  


                                    OUT                                        OUT
                                    ---                                        ---
   EVAPOTRANSPIRATION =        1.4091D+07     EVAPOTRANSPIRATION =        2160243.40
           STREAMFLOW =           1588.31             STREAMFLOW =           1588.28
     GW BOUNDARY FLOW =                         GW BOUNDARY FLOW =                  

   INFLOWS - OUTFLOWS =       -2389940.52     INFLOWS - OUTFLOWS =        4719224.34
             --------                                   --------

 TOTAL STORAGE CHANGE =       -2230110.04         STORAGE CHANGE =        4730276.04
       --------------                             --------------
         LAND SURFACE =        4767257.52           LAND SURFACE =        2802899.16
            SOIL ZONE =       -6886444.11              SOIL ZONE =        1907580.63
     UNSATURATED ZONE =       -7806607.48       UNSATURATED ZONE =         -14116.06
       SATURATED ZONE =        7695684.03         SATURATED ZONE =          33912.31

 OVERALL BUDGET ERROR =        -159830.47           BUDGET ERROR =         -11051.70


  PERCENT DISCREPANCY =             -1.14    PERCENT DISCREPANCY =             -0.16



1
 SUMMARY VOLUMETRIC BUDGET FOR GSFLOW 
 DATE: 10 08 1991              CUMULATIVE TIME STEP:       8
 MODFLOW STRESS PERIOD      1     CURRENT TIME STEP:       8     ITERATIONS:       6

 -----------------------------------------------------------------------------------

   CUMULATIVE VOLUMES               L**3   RATES FOR THIS TIME STEP           L**3/T
   ------------------                      ------------------------

                                     IN                                         IN
                                     --                                         --
        PRECIPITATION =        1.1703D+07          PRECIPITATION =                  
           STREAMFLOW =                               STREAMFLOW =                  
     GW BOUNDARY FLOW =                         GW BOUNDARY FLOW =                  


                                    OUT                                        OUT
                                    ---                                        ---
   EVAPOTRANSPIRATION =        1.6036D+07     EVAPOTRANSPIRATION =        1944851.62
           STREAMFLOW =           1588.31             STREAMFLOW =                  
     GW BOUNDARY FLOW =                         GW BOUNDARY FLOW =                  

   INFLOWS - OUTFLOWS =       -4334792.13     INFLOWS - OUTFLOWS =       -1944851.62
             --------                                   --------

 TOTAL STORAGE CHANGE =       -4141211.40         STORAGE CHANGE =       -1911101.35
       --------------                             --------------
         LAND SURFACE =        3685317.39           LAND SURFACE =       -1081940.13
            SOIL ZONE =       -7693518.44              SOIL ZONE =        -807074.33
     UNSATURATED ZONE =       -7816933.72       UNSATURATED ZONE =         -10326.24
       SATURATED ZONE =        7683923.38         SATURATED ZONE =         -11760.66

 OVERALL BUDGET ERROR =        -193580.74           BUDGET ERROR =         -33750.26


  PERCENT DISCREPANCY =             -1.21    PERCENT DISCREPANCY =             -1.75



1
 SUMMARY VOLUMETRIC BUDGET FOR GSFLOW 
 DATE: 10 09 1991              CUMULATIVE TIME STEP:       9
 MODFLOW STRESS PERIOD      1     CURRENT TIME STEP:       9     ITERATIONS:      12

 -----------------------------------------------------------------------------------

   CUMULATIVE VOLUMES               L**3   RATES FOR THIS TIME STEP           L**3/T
   ------------------                      ------------------------

                                     IN                                         IN
                                     --                                         --
        PRECIPITATION =        1.3109D+07          PRECIPITATION =        1406347.26
           STREAMFLOW =                               STREAMFLOW =                  
     GW BOUNDARY FLOW =                         GW BOUNDARY FLOW =                  


                                    OUT                                        OUT
                                    ---                                        ---
   EVAPOTRANSPIRATION =        1.7378D+07     EVAPOTRANSPIRATION =        1342074.75
           STREAMFLOW =           1588.31             STREAMFLOW =                  
     GW BOUNDARY FLOW =                         GW BOUNDARY FLOW =                  

   INFLOWS - OUTFLOWS =       -4270519.62     INFLOWS - OUTFLOWS =          64272.51
             --------                                   --------

 TOTAL STORAGE CHANGE =       -4042239.60         STORAGE CHANGE =          98971.79
       --------------                             --------------
         LAND SURFACE =        4258196.07           LAND SURFACE =         572878.68
            SOIL ZONE =       -8112743.04              SOIL ZONE =        -419224.60
     UNSATURATED ZONE =       -7826811.72       UNSATURATED ZONE =          -9878.00
       SATURATED ZONE =        7639119.09         SATURATED ZONE =         -44804.28

 OVERALL BUDGET ERROR =        -228280.02           BUDGET ERROR =         -34699.28


  PERCENT DISCREPANCY =             -1.32    PERCENT DISCREPANCY =             -2.44



1
 SUMMARY VOLUMETRIC BUDGET FOR GSFLOW 
 DATE: 10 10 1991              CUMULATIVE TIME STEP:      10
 MODFLOW STRESS PERIOD      1     CURRENT TIME STEP:      10     ITERATIONS:       3

 -----------------------------------------------------------------------------------

   CUMULATIVE VOLUMES               L**3   RATES FOR THIS TIME STEP           L**3/T
   ------------------                      ------------------------

                                     IN                                         IN
                                     --                                         --
        PRECIPITATION =        1.3109D+07          PRECIPITATION =                  
           STREAMFLOW =                               STREAMFLOW =                  
     GW BOUNDARY FLOW =                         GW BOUNDARY FLOW =                  


                                    OUT                                        OUT
                                    ---                                        ---
   EVAPOTRANSPIRATION =        1.8927D+07     EVAPOTRANSPIRATION =        1548653.42
           STREAMFLOW =           1588.31             STREAMFLOW =                  
     GW BOUNDARY FLOW =                         GW BOUNDARY FLOW =                  

   INFLOWS - OUTFLOWS =       -5819173.05     INFLOWS - OUTFLOWS =       -1548653.42
             --------                                   --------

 TOTAL STORAGE CHANGE =       -5558020.06         STORAGE CHANGE =       -1515780.46
       --------------                             --------------
         LAND SURFACE =        3287698.48           LAND SURFACE =        -970497.59
            SOIL ZONE =       -8617447.67              SOIL ZONE =        -504704.63
     UNSATURATED ZONE =       -7834187.96       UNSATURATED ZONE =          -7376.24
       SATURATED ZONE =        7605917.09         SATURATED ZONE =         -33202.00

 OVERALL BUDGET ERROR =        -261152.99           BUDGET ERROR =         -32872.97


  PERCENT DISCREPANCY =             -1.39    PERCENT DISCREPANCY =             -2.15



1
 SUMMARY VOLUMETRIC BUDGET FOR GSFLOW 
 DATE: 10 11 1991              CUMULATIVE TIME STEP:      11
 MODFLOW STRESS PERIOD      1     CURRENT TIME STEP:      11     ITERATIONS:       5

 -----------------------------------------------------------------------------------

   CUMULATIVE VOLUMES               L**3   RATES FOR THIS TIME STEP           L**3/T
   ------------------                      ------------------------

                                     IN                                         IN
                                     --                                         --
        PRECIPITATION =        1.3109D+07          PRECIPITATION =                  
           STREAMFLOW =                               STREAMFLOW =                  
     GW BOUNDARY FLOW =                         GW BOUNDARY FLOW =                  


                                    OUT                                        OUT
                                    ---                                        ---
   EVAPOTRANSPIRATION =        2.0234D+07     EVAPOTRANSPIRATION =        1306782.84
           STREAMFLOW =           1588.31             STREAMFLOW =                  
     GW BOUNDARY FLOW =                         GW BOUNDARY FLOW =                  

   INFLOWS - OUTFLOWS =       -7125955.89     INFLOWS - OUTFLOWS =       -1306782.84
             --------                                   --------

 TOTAL STORAGE CHANGE =       -6828475.40         STORAGE CHANGE =       -1270455.35
       --------------                             --------------
         LAND SURFACE =        2552564.35           LAND SURFACE =        -735134.13
            SOIL ZONE =       -9093956.79              SOIL ZONE =        -476509.12
     UNSATURATED ZONE =       -7841579.28       UNSATURATED ZONE =          -7391.32
       SATURATED ZONE =        7554496.31         SATURATED ZONE =         -51420.78

 OVERALL BUDGET ERROR =        -297480.49           BUDGET ERROR =         -36327.50


  PERCENT DISCREPANCY =             -1.48    PERCENT DISCREPANCY =             -2.82



1
 SUMMARY VOLUMETRIC BUDGET FOR GSFLOW 
 DATE: 10 12 1991              CUMULATIVE TIME STEP:      12
 MODFLOW STRESS PERIOD      1     CURRENT TIME STEP:      12     ITERATIONS:      66

 -----------------------------------------------------------------------------------

   CUMULATIVE VOLUMES               L**3   RATES FOR THIS TIME STEP           L**3/T
   ------------------                      ------------------------

                                     IN                                         IN
                                     --                                         --
        PRECIPITATION =        1.3109D+07          PRECIPITATION =                  
           STREAMFLOW =                               STREAMFLOW =                  
     GW BOUNDARY FLOW =                         GW BOUNDARY FLOW =                  


                                    OUT                                        OUT
                                    ---                                        ---
   EVAPOTRANSPIRATION =        2.1264D+07     EVAPOTRANSPIRATION =        1030474.25
           STREAMFLOW =           1588.31             STREAMFLOW =                  
     GW BOUNDARY FLOW =                         GW BOUNDARY FLOW =                  

   INFLOWS - OUTFLOWS =       -8156430.14     INFLOWS - OUTFLOWS =       -1030474.25
             --------                                   --------

 TOTAL STORAGE CHANGE =       -7824228.49         STORAGE CHANGE =        -995753.09
       --------------                             --------------
         LAND SURFACE =        2038198.93           LAND SURFACE =        -514365.42
            SOIL ZONE =       -9507970.53              SOIL ZONE =        -414013.74
     UNSATURATED ZONE =       -7850470.46       UNSATURATED ZONE =          -8891.18
       SATURATED ZONE =        7496013.56         SATURATED ZONE =         -58482.75

 OVERALL BUDGET ERROR =        -332201.65           BUDGET ERROR =         -34721.16

  ***WARNING, FLUX RATES OFF > 3%

  PERCENT DISCREPANCY =             -1.57    PERCENT DISCREPANCY =             -3.43



1
 SUMMARY VOLUMETRIC BUDGET FOR GSFLOW 
 DATE: 10 13 1991              CUMULATIVE TIME STEP:      13
 MODFLOW STRESS PERIOD      1     CURRENT TIME STEP:      13     ITERATIONS:      35

 -----------------------------------------------------------------------------------

   CUMULATIVE VOLUMES               L**3   RATES FOR THIS TIME STEP           L**3/T
   ------------------                      ------------------------

                                     IN                                         IN
                                     --                                         --
        PRECIPITATION =        1.3109D+07          PRECIPITATION =                  
           STREAMFLOW =                               STREAMFLOW =                  
     GW BOUNDARY FLOW =                         GW BOUNDARY FLOW =                  


                                    OUT                                        OUT
                                    ---                                        ---
   EVAPOTRANSPIRATION =        2.2181D+07     EVAPOTRANSPIRATION =         916875.97
           STREAMFLOW =           1588.39             STREAMFLOW =              0.08
     GW BOUNDARY FLOW =                         GW BOUNDARY FLOW =                  

   INFLOWS - OUTFLOWS =       -9073306.19     INFLOWS - OUTFLOWS =        -916876.05
             --------                                   --------

 TOTAL STORAGE CHANGE =       -8713164.47         STORAGE CHANGE =        -888935.98
       --------------                             --------------
         LAND SURFACE =        1648058.45           LAND SURFACE =        -390140.49
            SOIL ZONE =       -9917376.01              SOIL ZONE =        -409405.48
     UNSATURATED ZONE =       -7857545.30       UNSATURATED ZONE =          -7074.84
       SATURATED ZONE =        7413698.39         SATURATED ZONE =         -82315.17

 OVERALL BUDGET ERROR =        -360141.72           BUDGET ERROR =         -27940.07

  ***WARNING, FLUX RATES OFF > 3%

  PERCENT DISCREPANCY =             -1.64    PERCENT DISCREPANCY =             -3.09



1
 SUMMARY VOLUMETRIC BUDGET FOR GSFLOW 
 DATE: 10 14 1991              CUMULATIVE TIME STEP:      14
 MODFLOW STRESS PERIOD      1     CURRENT TIME STEP:      14     ITERATIONS:      39

 -----------------------------------------------------------------------------------

   CUMULATIVE VOLUMES               L**3   RATES FOR THIS TIME STEP           L**3/T
   ------------------                      ------------------------

                                     IN                                         IN
                                     --                                         --
        PRECIPITATION =        1.3109D+07          PRECIPITATION =                  
           STREAMFLOW =                               STREAMFLOW =                  
     GW BOUNDARY FLOW =                         GW BOUNDARY FLOW =                  


                                    OUT                                        OUT
                                    ---                                        ---
   EVAPOTRANSPIRATION =        2.2949D+07     EVAPOTRANSPIRATION =         768528.66
           STREAMFLOW =           1588.43             STREAMFLOW =              0.05
     GW BOUNDARY FLOW =                         GW BOUNDARY FLOW =                  

   INFLOWS - OUTFLOWS =       -9841834.89     INFLOWS - OUTFLOWS =        -768528.71
             --------                                   --------

 TOTAL STORAGE CHANGE =       -9455299.75         STORAGE CHANGE =        -742135.28
       --------------                             --------------
         LAND SURFACE =        1364220.46           LAND SURFACE =        -283837.99
            SOIL ZONE =       -1.0282D+07              SOIL ZONE =        -364597.77
     UNSATURATED ZONE =       -7864134.21       UNSATURATED ZONE =          -6588.91
       SATURATED ZONE =        7326587.78         SATURATED ZONE =         -87110.61

 OVERALL BUDGET ERROR =        -386535.14           BUDGET ERROR =         -26393.43

  ***WARNING, FLUX RATES OFF > 3%

  PERCENT DISCREPANCY =             -1.70    PERCENT DISCREPANCY =             -3.49



1
 SUMMARY VOLUMETRIC BUDGET FOR GSFLOW 
 DATE: 10 15 1991              CUMULATIVE TIME STEP:      15
 MODFLOW STRESS PERIOD      1     CURRENT TIME STEP:      15     ITERATIONS:      20

 -----------------------------------------------------------------------------------

   CUMULATIVE VOLUMES               L**3   RATES FOR THIS TIME STEP           L**3/T
   ------------------                      ------------------------

                                     IN                                         IN
                                     --                                         --
        PRECIPITATION =        1.3109D+07          PRECIPITATION =                  
           STREAMFLOW =                               STREAMFLOW =                  
     GW BOUNDARY FLOW =                         GW BOUNDARY FLOW =                  


                                    OUT                                        OUT
                                    ---                                        ---
   EVAPOTRANSPIRATION =        2.3514D+07     EVAPOTRANSPIRATION =         564965.67
           STREAMFLOW =           1588.45             STREAMFLOW =              0.02
     GW BOUNDARY FLOW =                         GW BOUNDARY FLOW =                  

   INFLOWS - OUTFLOWS =       -1.0407D+07     INFLOWS - OUTFLOWS =        -564965.69
             --------                                   --------

 TOTAL STORAGE CHANGE =       -9996877.36         STORAGE CHANGE =        -541577.61
       --------------                             --------------
         LAND SURFACE =        1181011.67           LAND SURFACE =        -183208.79
            SOIL ZONE =       -1.0562D+07              SOIL ZONE =        -279705.71
     UNSATURATED ZONE =       -7870212.11       UNSATURATED ZONE =          -6077.90
       SATURATED ZONE =        7254002.58         SATURATED ZONE =         -72585.20

 OVERALL BUDGET ERROR =        -409923.23           BUDGET ERROR =         -23388.08

  ***WARNING, FLUX RATES OFF > 3%

  PERCENT DISCREPANCY =             -1.76    PERCENT DISCREPANCY =             -4.23



1
 SUMMARY VOLUMETRIC BUDGET FOR GSFLOW 
 DATE: 10 16 1991              CUMULATIVE TIME STEP:      16
 MODFLOW STRESS PERIOD      1     CURRENT TIME STEP:      16     ITERATIONS:      21

 -----------------------------------------------------------------------------------

   CUMULATIVE VOLUMES               L**3   RATES FOR THIS TIME STEP           L**3/T
   ------------------                      ------------------------

                                     IN                                         IN
                                     --                                         --
        PRECIPITATION =        1.3109D+07          PRECIPITATION =                  
           STREAMFLOW =                               STREAMFLOW =                  
     GW BOUNDARY FLOW =                         GW BOUNDARY FLOW =                  


                                    OUT                                        OUT
                                    ---                                        ---
   EVAPOTRANSPIRATION =        2.3956D+07     EVAPOTRANSPIRATION =         441743.91
           STREAMFLOW =           1588.45             STREAMFLOW =                  
     GW BOUNDARY FLOW =                         GW BOUNDARY FLOW =                  

   INFLOWS - OUTFLOWS =       -1.0849D+07     INFLOWS - OUTFLOWS =        -441743.91
             --------                                   --------

 TOTAL STORAGE CHANGE =       -1.0417D+07         STORAGE CHANGE =        -420269.57
       --------------                             --------------
         LAND SURFACE =        1052544.48           LAND SURFACE =        -128467.19
            SOIL ZONE =       -1.0787D+07              SOIL ZONE =        -224962.71
     UNSATURATED ZONE =       -7875939.06       UNSATURATED ZONE =          -5726.95
       SATURATED ZONE =        7192889.86         SATURATED ZONE =         -61112.72

 OVERALL BUDGET ERROR =        -431397.57           BUDGET ERROR =         -21474.34

  ***WARNING, FLUX RATES OFF > 3%

  PERCENT DISCREPANCY =             -1.82    PERCENT DISCREPANCY =             -4.98



1
 SUMMARY VOLUMETRIC BUDGET FOR GSFLOW 
 DATE: 10 17 1991              CUMULATIVE TIME STEP:      17
 MODFLOW STRESS PERIOD      1     CURRENT TIME STEP:      17     ITERATIONS:       8

 -----------------------------------------------------------------------------------

   CUMULATIVE VOLUMES               L**3   RATES FOR THIS TIME STEP           L**3/T
   ------------------                      ------------------------

                                     IN                                         IN
                                     --                                         --
        PRECIPITATION =        1.3109D+07          PRECIPITATION =                  
           STREAMFLOW =                               STREAMFLOW =                  
     GW BOUNDARY FLOW =                         GW BOUNDARY FLOW =                  


                                    OUT                                        OUT
                                    ---                                        ---
   EVAPOTRANSPIRATION =        2.4474D+07     EVAPOTRANSPIRATION =         517637.49
           STREAMFLOW =           1588.45             STREAMFLOW =                  
     GW BOUNDARY FLOW =                         GW BOUNDARY FLOW =                  

   INFLOWS - OUTFLOWS =       -1.1366D+07     INFLOWS - OUTFLOWS =        -517637.49
             --------                                   --------

 TOTAL STORAGE CHANGE =       -1.0910D+07         STORAGE CHANGE =        -493036.44
       --------------                             --------------
         LAND SURFACE =         914945.36           LAND SURFACE =        -137599.12
            SOIL ZONE =       -1.1053D+07              SOIL ZONE =        -266034.27
     UNSATURATED ZONE =       -7880982.69       UNSATURATED ZONE =          -5043.63
       SATURATED ZONE =        7108530.44         SATURATED ZONE =         -84359.42

 OVERALL BUDGET ERROR =        -455998.62           BUDGET ERROR =         -24601.05

  ***WARNING, FLUX RATES OFF > 3%

  PERCENT DISCREPANCY =             -1.88    PERCENT DISCREPANCY =             -4.87



1
 SUMMARY VOLUMETRIC BUDGET FOR GSFLOW 
 DATE: 10 18 1991              CUMULATIVE TIME STEP:      18
 MODFLOW STRESS PERIOD      1     CURRENT TIME STEP:      18     ITERATIONS:       3

 -----------------------------------------------------------------------------------

   CUMULATIVE VOLUMES               L**3   RATES FOR THIS TIME STEP           L**3/T
   ------------------                      ------------------------

                                     IN                                         IN
                                     --                                         --
        PRECIPITATION =        1.3109D+07          PRECIPITATION =                  
           STREAMFLOW =                               STREAMFLOW =                  
     GW BOUNDARY FLOW =                         GW BOUNDARY FLOW =                  


                                    OUT                                        OUT
                                    ---                                        ---
   EVAPOTRANSPIRATION =        2.4978D+07     EVAPOTRANSPIRATION =         504467.75
           STREAMFLOW =           1588.45             STREAMFLOW =                  
     GW BOUNDARY FLOW =                         GW BOUNDARY FLOW =                  

   INFLOWS - OUTFLOWS =       -1.1871D+07     INFLOWS - OUTFLOWS =        -504467.75
             --------                                   --------

 TOTAL STORAGE CHANGE =       -1.1389D+07         STORAGE CHANGE =        -478902.69
       --------------                             --------------
         LAND SURFACE =         799012.72           LAND SURFACE =        -115932.64
            SOIL ZONE =       -1.1318D+07              SOIL ZONE =        -265031.00
     UNSATURATED ZONE =       -7885126.52       UNSATURATED ZONE =          -4143.83
       SATURATED ZONE =        7014735.20         SATURATED ZONE =         -93795.23

 OVERALL BUDGET ERROR =        -481563.68           BUDGET ERROR =         -25565.06

  ***WARNING, FLUX RATES OFF > 3%

  PERCENT DISCREPANCY =             -1.95    PERCENT DISCREPANCY =             -5.20



1
 SUMMARY VOLUMETRIC BUDGET FOR GSFLOW 
 DATE: 10 19 1991              CUMULATIVE TIME STEP:      19
 MODFLOW STRESS PERIOD      1     CURRENT TIME STEP:      19     ITERATIONS:      66

 -----------------------------------------------------------------------------------

   CUMULATIVE VOLUMES               L**3   RATES FOR THIS TIME STEP           L**3/T
   ------------------                      ------------------------

                                     IN                                         IN
                                     --                                         --
        PRECIPITATION =        1.3109D+07          PRECIPITATION =                  
           STREAMFLOW =                               STREAMFLOW =                  
     GW BOUNDARY FLOW =                         GW BOUNDARY FLOW =                  


                                    OUT                                        OUT
                                    ---                                        ---
   EVAPOTRANSPIRATION =        2.5516D+07     EVAPOTRANSPIRATION =         537397.93
           STREAMFLOW =           1588.45             STREAMFLOW =                  
     GW BOUNDARY FLOW =                         GW BOUNDARY FLOW =                  

   INFLOWS - OUTFLOWS =       -1.2408D+07     INFLOWS - OUTFLOWS =        -537397.93
             --------                                   --------

 TOTAL STORAGE CHANGE =       -1.1898D+07         STORAGE CHANGE =        -509189.07
       --------------                             --------------
         LAND SURFACE =         690366.17           LAND SURFACE =        -108646.56
            SOIL ZONE =       -1.1602D+07              SOIL ZONE =        -284638.43
     UNSATURATED ZONE =       -7890168.14       UNSATURATED ZONE =          -5041.62
       SATURATED ZONE =        6903872.75         SATURATED ZONE =        -110862.45

 OVERALL BUDGET ERROR =        -509772.54           BUDGET ERROR =         -28208.86

  ***WARNING, FLUX RATES OFF > 3%

  PERCENT DISCREPANCY =             -2.02    PERCENT DISCREPANCY =             -5.39



1
 SUMMARY VOLUMETRIC BUDGET FOR GSFLOW 
 DATE: 10 20 1991              CUMULATIVE TIME STEP:      20
 MODFLOW STRESS PERIOD      1     CURRENT TIME STEP:      20     ITERATIONS:      16

 -----------------------------------------------------------------------------------

   CUMULATIVE VOLUMES               L**3   RATES FOR THIS TIME STEP           L**3/T
   ------------------                      ------------------------

                                     IN                                         IN
                                     --                                         --
        PRECIPITATION =        1.3109D+07          PRECIPITATION =                  
           STREAMFLOW =                               STREAMFLOW =                  
     GW BOUNDARY FLOW =                         GW BOUNDARY FLOW =                  


                                    OUT                                        OUT
                                    ---                                        ---
   EVAPOTRANSPIRATION =        2.5949D+07     EVAPOTRANSPIRATION =         433495.80
           STREAMFLOW =           1588.45             STREAMFLOW =                  
     GW BOUNDARY FLOW =                         GW BOUNDARY FLOW =                  

   INFLOWS - OUTFLOWS =       -1.2842D+07     INFLOWS - OUTFLOWS =        -433495.80
             --------                                   --------

 TOTAL STORAGE CHANGE =       -1.2306D+07         STORAGE CHANGE =        -408216.58
       --------------                             --------------
         LAND SURFACE =         619407.82           LAND SURFACE =         -70958.35
            SOIL ZONE =       -1.1834D+07              SOIL ZONE =        -231964.42
     UNSATURATED ZONE =       -7894665.70       UNSATURATED ZONE =          -4497.56
       SATURATED ZONE =        6803076.50         SATURATED ZONE =        -100796.25

 OVERALL BUDGET ERROR =        -535051.77           BUDGET ERROR =         -25279.22

  ***WARNING, FLUX RATES OFF > 3%

  PERCENT DISCREPANCY =             -2.08    PERCENT DISCREPANCY =             -6.01



1
 SUMMARY VOLUMETRIC BUDGET FOR GSFLOW 
 DATE: 10 21 1991              CUMULATIVE TIME STEP:      21
 MODFLOW STRESS PERIOD      1     CURRENT TIME STEP:      21     ITERATIONS:      56

 -----------------------------------------------------------------------------------

   CUMULATIVE VOLUMES               L**3   RATES FOR THIS TIME STEP           L**3/T
   ------------------                      ------------------------

                                     IN                                         IN
                                     --                                         --
        PRECIPITATION =        1.3109D+07          PRECIPITATION =                  
           STREAMFLOW =                               STREAMFLOW =                  
     GW BOUNDARY FLOW =                         GW BOUNDARY FLOW =                  


                                    OUT                                        OUT
                                    ---                                        ---
   EVAPOTRANSPIRATION =        2.6293D+07     EVAPOTRANSPIRATION =         343630.35
           STREAMFLOW =           1588.65             STREAMFLOW =              0.20
     GW BOUNDARY FLOW =                         GW BOUNDARY FLOW =                  

   INFLOWS - OUTFLOWS =       -1.3185D+07     INFLOWS - OUTFLOWS =        -343630.55
             --------                                   --------

 TOTAL STORAGE CHANGE =       -1.2629D+07         STORAGE CHANGE =        -322337.24
       --------------                             --------------
         LAND SURFACE =         567913.15           LAND SURFACE =         -51494.67
            SOIL ZONE =       -1.2016D+07              SOIL ZONE =        -181837.98
     UNSATURATED ZONE =       -7899063.30       UNSATURATED ZONE =          -4397.60
       SATURATED ZONE =        6718469.52         SATURATED ZONE =         -84606.98

 OVERALL BUDGET ERROR =        -556345.08           BUDGET ERROR =         -21293.31

  ***WARNING, FLUX RATES OFF > 3%

  PERCENT DISCREPANCY =             -2.14    PERCENT DISCREPANCY =             -6.39



1
 SUMMARY VOLUMETRIC BUDGET FOR GSFLOW 
 DATE: 10 22 1991              CUMULATIVE TIME STEP:      22
 MODFLOW STRESS PERIOD      1     CURRENT TIME STEP:      22     ITERATIONS:       3

 -----------------------------------------------------------------------------------

   CUMULATIVE VOLUMES               L**3   RATES FOR THIS TIME STEP           L**3/T
   ------------------                      ------------------------

                                     IN                                         IN
                                     --                                         --
        PRECIPITATION =        1.3109D+07          PRECIPITATION =                  
           STREAMFLOW =                               STREAMFLOW =                  
     GW BOUNDARY FLOW =                         GW BOUNDARY FLOW =                  


                                    OUT                                        OUT
                                    ---                                        ---
   EVAPOTRANSPIRATION =        2.6528D+07     EVAPOTRANSPIRATION =         234888.10
           STREAMFLOW =           1588.82             STREAMFLOW =              0.18
     GW BOUNDARY FLOW =                         GW BOUNDARY FLOW =                  

   INFLOWS - OUTFLOWS =       -1.3420D+07     INFLOWS - OUTFLOWS =        -234888.28
             --------                                   --------

 TOTAL STORAGE CHANGE =       -1.2846D+07         STORAGE CHANGE =        -217593.73
       --------------                             --------------
         LAND SURFACE =         536472.64           LAND SURFACE =         -31440.51
            SOIL ZONE =       -1.2140D+07              SOIL ZONE =        -123457.06
     UNSATURATED ZONE =       -7902598.57       UNSATURATED ZONE =          -3535.26
       SATURATED ZONE =        6659308.62         SATURATED ZONE =         -59160.89

 OVERALL BUDGET ERROR =        -573639.63           BUDGET ERROR =         -17294.55

  ***WARNING, FLUX RATES OFF > 3%

  PERCENT DISCREPANCY =             -2.19    PERCENT DISCREPANCY =             -7.64



1
 SUMMARY VOLUMETRIC BUDGET FOR GSFLOW 
 DATE: 10 23 1991              CUMULATIVE TIME STEP:      23
 MODFLOW STRESS PERIOD      1     CURRENT TIME STEP:      23     ITERATIONS:      44

 -----------------------------------------------------------------------------------

   CUMULATIVE VOLUMES               L**3   RATES FOR THIS TIME STEP           L**3/T
   ------------------                      ------------------------

                                     IN                                         IN
                                     --                                         --
        PRECIPITATION =        1.3109D+07          PRECIPITATION =                  
           STREAMFLOW =                               STREAMFLOW =                  
     GW BOUNDARY FLOW =                         GW BOUNDARY FLOW =                  


                                    OUT                                        OUT
                                    ---                                        ---
   EVAPOTRANSPIRATION =        2.6712D+07     EVAPOTRANSPIRATION =         184772.67
           STREAMFLOW =           1588.98             STREAMFLOW =              0.16
     GW BOUNDARY FLOW =                         GW BOUNDARY FLOW =                  

   INFLOWS - OUTFLOWS =       -1.3605D+07     INFLOWS - OUTFLOWS =        -184772.83
             --------                                   --------

 TOTAL STORAGE CHANGE =       -1.3013D+07         STORAGE CHANGE =        -166452.56
       --------------                             --------------
         LAND SURFACE =         513136.86           LAND SURFACE =         -23335.78
            SOIL ZONE =       -1.2236D+07              SOIL ZONE =         -96589.49
     UNSATURATED ZONE =       -7906745.22       UNSATURATED ZONE =          -4146.66
       SATURATED ZONE =        6616927.98         SATURATED ZONE =         -42380.64

 OVERALL BUDGET ERROR =        -591959.89           BUDGET ERROR =         -18320.26

  ***CAUTION, FLUX RATES OFF > 10%

  PERCENT DISCREPANCY =             -2.24    PERCENT DISCREPANCY =            -10.43



1
 SUMMARY VOLUMETRIC BUDGET FOR GSFLOW 
 DATE: 10 24 1991              CUMULATIVE TIME STEP:      24
 MODFLOW STRESS PERIOD      1     CURRENT TIME STEP:      24     ITERATIONS:       3

 -----------------------------------------------------------------------------------

   CUMULATIVE VOLUMES               L**3   RATES FOR THIS TIME STEP           L**3/T
   ------------------                      ------------------------

                                     IN                                         IN
                                     --                                         --
        PRECIPITATION =        1.3109D+07          PRECIPITATION =                  
           STREAMFLOW =                               STREAMFLOW =                  
     GW BOUNDARY FLOW =                         GW BOUNDARY FLOW =                  


                                    OUT                                        OUT
                                    ---                                        ---
   EVAPOTRANSPIRATION =        2.6862D+07     EVAPOTRANSPIRATION =         149524.04
           STREAMFLOW =           1589.12             STREAMFLOW =              0.14
     GW BOUNDARY FLOW =                         GW BOUNDARY FLOW =                  

   INFLOWS - OUTFLOWS =       -1.3754D+07     INFLOWS - OUTFLOWS =        -149524.18
             --------                                   --------

 TOTAL STORAGE CHANGE =       -1.3147D+07         STORAGE CHANGE =        -133668.88
       --------------                             --------------
         LAND SURFACE =         495275.95           LAND SURFACE =         -17860.92
            SOIL ZONE =       -1.2314D+07              SOIL ZONE =         -77502.01
     UNSATURATED ZONE =       -7909964.11       UNSATURATED ZONE =          -3218.89
       SATURATED ZONE =        6581840.92         SATURATED ZONE =         -35087.06

 OVERALL BUDGET ERROR =        -607815.19           BUDGET ERROR =         -15855.30

  ***CAUTION, FLUX RATES OFF > 10%

  PERCENT DISCREPANCY =             -2.29    PERCENT DISCREPANCY =            -11.20



1
 SUMMARY VOLUMETRIC BUDGET FOR GSFLOW 
 DATE: 10 25 1991              CUMULATIVE TIME STEP:      25
 MODFLOW STRESS PERIOD      1     CURRENT TIME STEP:      25     ITERATIONS:      16

 -----------------------------------------------------------------------------------

   CUMULATIVE VOLUMES               L**3   RATES FOR THIS TIME STEP           L**3/T
   ------------------                      ------------------------

                                     IN                                         IN
                                     --                                         --
        PRECIPITATION =        1.3863D+07          PRECIPITATION =         753400.34
           STREAMFLOW =                               STREAMFLOW =                  
     GW BOUNDARY FLOW =                         GW BOUNDARY FLOW =                  


                                    OUT                                        OUT
                                    ---                                        ---
   EVAPOTRANSPIRATION =        2.6971D+07     EVAPOTRANSPIRATION =         109428.49
           STREAMFLOW =           1589.12             STREAMFLOW =                  
     GW BOUNDARY FLOW =                         GW BOUNDARY FLOW =                  

   INFLOWS - OUTFLOWS =       -1.3110D+07     INFLOWS - OUTFLOWS =         643971.85
             --------                                   --------

 TOTAL STORAGE CHANGE =       -1.2489D+07         STORAGE CHANGE =         657660.00
       --------------                             --------------
         LAND SURFACE =         802285.95           LAND SURFACE =         307010.00
            SOIL ZONE =       -1.1941D+07              SOIL ZONE =         372922.40
     UNSATURATED ZONE =       -7913590.53       UNSATURATED ZONE =          -3626.42
       SATURATED ZONE =        6563194.94         SATURATED ZONE =         -18645.98

 OVERALL BUDGET ERROR =        -621503.34           BUDGET ERROR =         -13688.15


  PERCENT DISCREPANCY =             -2.33    PERCENT DISCREPANCY =             -1.80



1
 SUMMARY VOLUMETRIC BUDGET FOR GSFLOW 
 DATE: 10 26 1991              CUMULATIVE TIME STEP:      26
 MODFLOW STRESS PERIOD      1     CURRENT TIME STEP:      26     ITERATIONS:       4

 -----------------------------------------------------------------------------------

   CUMULATIVE VOLUMES               L**3   RATES FOR THIS TIME STEP           L**3/T
   ------------------                      ------------------------

                                     IN                                         IN
                                     --                                         --
        PRECIPITATION =        1.7931D+07          PRECIPITATION =        4068362.08
           STREAMFLOW =                               STREAMFLOW =                  
     GW BOUNDARY FLOW =                         GW BOUNDARY FLOW =                  


                                    OUT                                        OUT
                                    ---                                        ---
   EVAPOTRANSPIRATION =        2.7160D+07     EVAPOTRANSPIRATION =         188898.54
           STREAMFLOW =           1589.12             STREAMFLOW =                  
     GW BOUNDARY FLOW =                         GW BOUNDARY FLOW =                  

   INFLOWS - OUTFLOWS =       -9230923.91     INFLOWS - OUTFLOWS =        3879463.54
             --------                                   --------

 TOTAL STORAGE CHANGE =       -8610274.40         STORAGE CHANGE =        3878609.71
       --------------                             --------------
         LAND SURFACE =        2459633.97           LAND SURFACE =        1657348.02
            SOIL ZONE =       -9713461.51              SOIL ZONE =        2227312.96
     UNSATURATED ZONE =       -7915744.06       UNSATURATED ZONE =          -2153.53
       SATURATED ZONE =        6559297.20         SATURATED ZONE =          -3897.73

 OVERALL BUDGET ERROR =        -620649.52           BUDGET ERROR =            853.83


  PERCENT DISCREPANCY =             -2.31    PERCENT DISCREPANCY =              0.02



1
 SUMMARY VOLUMETRIC BUDGET FOR GSFLOW 
 DATE: 10 27 1991              CUMULATIVE TIME STEP:      27
 MODFLOW STRESS PERIOD      1     CURRENT TIME STEP:      27     ITERATIONS:       9

 -----------------------------------------------------------------------------------

   CUMULATIVE VOLUMES               L**3   RATES FOR THIS TIME STEP           L**3/T
   ------------------                      ------------------------

                                     IN                                         IN
                                     --                                         --
        PRECIPITATION =        2.4812D+07          PRECIPITATION =        6881056.02
           STREAMFLOW =                               STREAMFLOW =                  
     GW BOUNDARY FLOW =                         GW BOUNDARY FLOW =                  


                                    OUT                                        OUT
                                    ---                                        ---
   EVAPOTRANSPIRATION =        2.7458D+07     EVAPOTRANSPIRATION =         297278.83
           STREAMFLOW =           4229.81             STREAMFLOW =           2640.69
     GW BOUNDARY FLOW =                         GW BOUNDARY FLOW =                  

   INFLOWS - OUTFLOWS =       -2649787.41     INFLOWS - OUTFLOWS =        6581136.50
             --------                                   --------

 TOTAL STORAGE CHANGE =       -2063755.42         STORAGE CHANGE =        6546518.98
       --------------                             --------------
         LAND SURFACE =        5262533.13           LAND SURFACE =        2802899.16
            SOIL ZONE =       -5988250.83              SOIL ZONE =        3725210.67
     UNSATURATED ZONE =       -7913423.17       UNSATURATED ZONE =           2320.89
       SATURATED ZONE =        6575385.45         SATURATED ZONE =          16088.25

 OVERALL BUDGET ERROR =        -586032.00           BUDGET ERROR =          34617.52


  PERCENT DISCREPANCY =             -2.16    PERCENT DISCREPANCY =              0.50



1
 SUMMARY VOLUMETRIC BUDGET FOR GSFLOW 
 DATE: 10 28 1991              CUMULATIVE TIME STEP:      28
 MODFLOW STRESS PERIOD      1     CURRENT TIME STEP:      28     ITERATIONS:       6

 -----------------------------------------------------------------------------------

   CUMULATIVE VOLUMES               L**3   RATES FOR THIS TIME STEP           L**3/T
   ------------------                      ------------------------

                                     IN                                         IN
                                     --                                         --
        PRECIPITATION =        2.4812D+07          PRECIPITATION =                  
           STREAMFLOW =                               STREAMFLOW =                  
     GW BOUNDARY FLOW =                         GW BOUNDARY FLOW =                  


                                    OUT                                        OUT
                                    ---                                        ---
   EVAPOTRANSPIRATION =        2.8162D+07     EVAPOTRANSPIRATION =         703998.13
           STREAMFLOW =           4229.81             STREAMFLOW =                  
     GW BOUNDARY FLOW =                         GW BOUNDARY FLOW =                  

   INFLOWS - OUTFLOWS =       -3353785.54     INFLOWS - OUTFLOWS =        -703998.13
             --------                                   --------

 TOTAL STORAGE CHANGE =       -2777364.84         STORAGE CHANGE =        -713609.43
       --------------                             --------------
         LAND SURFACE =        4894267.18           LAND SURFACE =        -368265.95
            SOIL ZONE =       -6336391.98              SOIL ZONE =        -348141.15
     UNSATURATED ZONE =       -7914840.55       UNSATURATED ZONE =          -1417.38
       SATURATED ZONE =        6579600.52         SATURATED ZONE =           4215.06

 OVERALL BUDGET ERROR =        -576420.70           BUDGET ERROR =           9611.30


  PERCENT DISCREPANCY =             -2.07    PERCENT DISCREPANCY =              1.36



1
 SUMMARY VOLUMETRIC BUDGET FOR GSFLOW 
 DATE: 10 29 1991              CUMULATIVE TIME STEP:      29
 MODFLOW STRESS PERIOD      1     CURRENT TIME STEP:      29     ITERATIONS:       5

 -----------------------------------------------------------------------------------

   CUMULATIVE VOLUMES               L**3   RATES FOR THIS TIME STEP           L**3/T
   ------------------                      ------------------------

                                     IN                                         IN
                                     --                                         --
        PRECIPITATION =        2.6218D+07          PRECIPITATION =        1406347.26
           STREAMFLOW =                               STREAMFLOW =                  
     GW BOUNDARY FLOW =                         GW BOUNDARY FLOW =                  


                                    OUT                                        OUT
                                    ---                                        ---
   EVAPOTRANSPIRATION =        2.8508D+07     EVAPOTRANSPIRATION =         346777.58
           STREAMFLOW =           4229.81             STREAMFLOW =                  
     GW BOUNDARY FLOW =                         GW BOUNDARY FLOW =                  

   INFLOWS - OUTFLOWS =       -2294215.86     INFLOWS - OUTFLOWS =        1059569.68
             --------                                   --------

 TOTAL STORAGE CHANGE =       -1734568.51         STORAGE CHANGE =        1042796.33
       --------------                             --------------
         LAND SURFACE =        5467133.43           LAND SURFACE =         572866.25
            SOIL ZONE =       -5873405.79              SOIL ZONE =         462986.20
     UNSATURATED ZONE =       -7916625.16       UNSATURATED ZONE =          -1784.60
       SATURATED ZONE =        6588329.00         SATURATED ZONE =           8728.48

 OVERALL BUDGET ERROR =        -559647.35           BUDGET ERROR =          16773.35


  PERCENT DISCREPANCY =             -1.98    PERCENT DISCREPANCY =              1.20



1
 SUMMARY VOLUMETRIC BUDGET FOR GSFLOW 
 DATE: 10 30 1991              CUMULATIVE TIME STEP:      30
 MODFLOW STRESS PERIOD      1     CURRENT TIME STEP:      30     ITERATIONS:      47

 -----------------------------------------------------------------------------------

   CUMULATIVE VOLUMES               L**3   RATES FOR THIS TIME STEP           L**3/T
   ------------------                      ------------------------

                                     IN                                         IN
                                     --                                         --
        PRECIPITATION =        2.6218D+07          PRECIPITATION =                  
           STREAMFLOW =                               STREAMFLOW =                  
     GW BOUNDARY FLOW =                         GW BOUNDARY FLOW =                  


                                    OUT                                        OUT
                                    ---                                        ---
   EVAPOTRANSPIRATION =        2.9360D+07     EVAPOTRANSPIRATION =         852099.43
           STREAMFLOW =           4229.81             STREAMFLOW =                  
     GW BOUNDARY FLOW =                         GW BOUNDARY FLOW =                  

   INFLOWS - OUTFLOWS =       -3146315.29     INFLOWS - OUTFLOWS =        -852099.43
             --------                                   --------

 TOTAL STORAGE CHANGE =       -2580619.90         STORAGE CHANGE =        -846051.39
       --------------                             --------------
         LAND SURFACE =        5012237.33           LAND SURFACE =        -454896.10
            SOIL ZONE =       -6275720.34              SOIL ZONE =        -402314.55
     UNSATURATED ZONE =       -7919303.63       UNSATURATED ZONE =          -2678.47
       SATURATED ZONE =        6602166.73         SATURATED ZONE =          13837.73

 OVERALL BUDGET ERROR =        -565695.39           BUDGET ERROR =          -6048.04


  PERCENT DISCREPANCY =             -1.95    PERCENT DISCREPANCY =             -0.71



1
 SUMMARY VOLUMETRIC BUDGET FOR GSFLOW 
 DATE: 10 31 1991              CUMULATIVE TIME STEP:      31
 MODFLOW STRESS PERIOD      1     CURRENT TIME STEP:      31     ITERATIONS:      37

 -----------------------------------------------------------------------------------

   CUMULATIVE VOLUMES               L**3   RATES FOR THIS TIME STEP           L**3/T
   ------------------                      ------------------------

                                     IN                                         IN
                                     --                                         --
        PRECIPITATION =        2.6218D+07          PRECIPITATION =                  
           STREAMFLOW =                               STREAMFLOW =                  
     GW BOUNDARY FLOW =                         GW BOUNDARY FLOW =                  


                                    OUT                                        OUT
                                    ---                                        ---
   EVAPOTRANSPIRATION =        3.0273D+07     EVAPOTRANSPIRATION =         912506.70
           STREAMFLOW =           4229.81             STREAMFLOW =                  
     GW BOUNDARY FLOW =                         GW BOUNDARY FLOW =                  

   INFLOWS - OUTFLOWS =       -4058821.99     INFLOWS - OUTFLOWS =        -912506.70
             --------                                   --------

 TOTAL STORAGE CHANGE =       -3479350.29         STORAGE CHANGE =        -898730.39
       --------------                             --------------
         LAND SURFACE =        4508416.17           LAND SURFACE =        -503821.17
            SOIL ZONE =       -6679832.61              SOIL ZONE =        -404112.27
     UNSATURATED ZONE =       -7922400.89       UNSATURATED ZONE =          -3097.27
       SATURATED ZONE =        6614467.05         SATURATED ZONE =          12300.31

 OVERALL BUDGET ERROR =        -579471.70           BUDGET ERROR =         -13776.31


  PERCENT DISCREPANCY =             -1.93    PERCENT DISCREPANCY =             -1.52



1
 SUMMARY VOLUMETRIC BUDGET FOR GSFLOW 
 DATE: 11 01 1991              CUMULATIVE TIME STEP:      32
 MODFLOW STRESS PERIOD      1     CURRENT TIME STEP:      32     ITERATIONS:      19

 -----------------------------------------------------------------------------------

   CUMULATIVE VOLUMES               L**3   RATES FOR THIS TIME STEP           L**3/T
   ------------------                      ------------------------

                                     IN                                         IN
                                     --                                         --
        PRECIPITATION =        2.6218D+07          PRECIPITATION =                  
           STREAMFLOW =                               STREAMFLOW =                  
     GW BOUNDARY FLOW =                         GW BOUNDARY FLOW =                  


                                    OUT                                        OUT
                                    ---                                        ---
   EVAPOTRANSPIRATION =        3.1631D+07     EVAPOTRANSPIRATION =        1357948.44
           STREAMFLOW =           4229.84             STREAMFLOW =              0.02
     GW BOUNDARY FLOW =                         GW BOUNDARY FLOW =                  

   INFLOWS - OUTFLOWS =       -5416770.45     INFLOWS - OUTFLOWS =       -1357948.46
             --------                                   --------

 TOTAL STORAGE CHANGE =       -4810560.69         STORAGE CHANGE =       -1331210.40
       --------------                             --------------
         LAND SURFACE =        3775489.52           LAND SURFACE =        -732926.65
            SOIL ZONE =       -7267723.24              SOIL ZONE =        -587890.62
     UNSATURATED ZONE =       -7925426.28       UNSATURATED ZONE =          -3025.39
       SATURATED ZONE =        6607099.31         SATURATED ZONE =          -7367.73

 OVERALL BUDGET ERROR =        -606209.76           BUDGET ERROR =         -26738.06


  PERCENT DISCREPANCY =             -1.93    PERCENT DISCREPANCY =             -1.99



1
 SUMMARY VOLUMETRIC BUDGET FOR GSFLOW 
 DATE: 11 02 1991              CUMULATIVE TIME STEP:      33
 MODFLOW STRESS PERIOD      1     CURRENT TIME STEP:      33     ITERATIONS:      12

 -----------------------------------------------------------------------------------

   CUMULATIVE VOLUMES               L**3   RATES FOR THIS TIME STEP           L**3/T
   ------------------                      ------------------------

                                     IN                                         IN
                                     --                                         --
        PRECIPITATION =        2.6218D+07          PRECIPITATION =                  
           STREAMFLOW =                               STREAMFLOW =                  
     GW BOUNDARY FLOW =                         GW BOUNDARY FLOW =                  


                                    OUT                                        OUT
                                    ---                                        ---
   EVAPOTRANSPIRATION =        3.2596D+07     EVAPOTRANSPIRATION =         965370.05
           STREAMFLOW =           4229.84             STREAMFLOW =                  
     GW BOUNDARY FLOW =                         GW BOUNDARY FLOW =                  

   INFLOWS - OUTFLOWS =       -6382140.51     INFLOWS - OUTFLOWS =        -965370.05
             --------                                   --------

 TOTAL STORAGE CHANGE =       -5745879.41         STORAGE CHANGE =        -935318.72
       --------------                             --------------
         LAND SURFACE =        3291893.71           LAND SURFACE =        -483595.81
            SOIL ZONE =       -7699198.35              SOIL ZONE =        -431475.11
     UNSATURATED ZONE =       -7928293.37       UNSATURATED ZONE =          -2867.08
       SATURATED ZONE =        6589718.59         SATURATED ZONE =         -17380.72

 OVERALL BUDGET ERROR =        -636261.10           BUDGET ERROR =         -30051.34

  ***WARNING, FLUX RATES OFF > 3%

  PERCENT DISCREPANCY =             -1.97    PERCENT DISCREPANCY =             -3.16



1
 SUMMARY VOLUMETRIC BUDGET FOR GSFLOW 
 DATE: 11 03 1991              CUMULATIVE TIME STEP:      34
 MODFLOW STRESS PERIOD      1     CURRENT TIME STEP:      34     ITERATIONS:      49

 -----------------------------------------------------------------------------------

   CUMULATIVE VOLUMES               L**3   RATES FOR THIS TIME STEP           L**3/T
   ------------------                      ------------------------

                                     IN                                         IN
                                     --                                         --
        PRECIPITATION =        2.6218D+07          PRECIPITATION =                  
           STREAMFLOW =                               STREAMFLOW =                  
     GW BOUNDARY FLOW =                         GW BOUNDARY FLOW =                  


                                    OUT                                        OUT
                                    ---                                        ---
   EVAPOTRANSPIRATION =        3.3370D+07     EVAPOTRANSPIRATION =         773290.44
           STREAMFLOW =           4229.84             STREAMFLOW =                  
     GW BOUNDARY FLOW =                         GW BOUNDARY FLOW =                  

   INFLOWS - OUTFLOWS =       -7155430.95     INFLOWS - OUTFLOWS =        -773290.44
             --------                                   --------

 TOTAL STORAGE CHANGE =       -6492396.44         STORAGE CHANGE =        -746517.03
       --------------                             --------------
         LAND SURFACE =        2941280.28           LAND SURFACE =        -350613.43
            SOIL ZONE =       -8067765.46              SOIL ZONE =        -368567.11
     UNSATURATED ZONE =       -7931144.09       UNSATURATED ZONE =          -2850.72
       SATURATED ZONE =        6565232.83         SATURATED ZONE =         -24485.77

 OVERALL BUDGET ERROR =        -663034.51           BUDGET ERROR =         -26773.41

  ***WARNING, FLUX RATES OFF > 3%

  PERCENT DISCREPANCY =             -2.01    PERCENT DISCREPANCY =             -3.52



1
 SUMMARY VOLUMETRIC BUDGET FOR GSFLOW 
 DATE: 11 04 1991              CUMULATIVE TIME STEP:      35
 MODFLOW STRESS PERIOD      1     CURRENT TIME STEP:      35     ITERATIONS:      29

 -----------------------------------------------------------------------------------

   CUMULATIVE VOLUMES               L**3   RATES FOR THIS TIME STEP           L**3/T
   ------------------                      ------------------------

                                     IN                                         IN
                                     --                                         --
        PRECIPITATION =        2.6218D+07          PRECIPITATION =                  
           STREAMFLOW =                               STREAMFLOW =                  
     GW BOUNDARY FLOW =                         GW BOUNDARY FLOW =                  


                                    OUT                                        OUT
                                    ---                                        ---
   EVAPOTRANSPIRATION =        3.4145D+07     EVAPOTRANSPIRATION =         775902.00
           STREAMFLOW =           4229.84             STREAMFLOW =                  
     GW BOUNDARY FLOW =                         GW BOUNDARY FLOW =                  

   INFLOWS - OUTFLOWS =       -7931332.95     INFLOWS - OUTFLOWS =        -775902.00
             --------                                   --------

 TOTAL STORAGE CHANGE =       -7243110.33         STORAGE CHANGE =        -750713.89
       --------------                             --------------
         LAND SURFACE =        2617887.86           LAND SURFACE =        -323392.42
            SOIL ZONE =       -8452779.07              SOIL ZONE =        -385013.61
     UNSATURATED ZONE =       -7934084.87       UNSATURATED ZONE =          -2940.78
       SATURATED ZONE =        6525865.75         SATURATED ZONE =         -39367.08

 OVERALL BUDGET ERROR =        -688222.63           BUDGET ERROR =         -25188.11

  ***WARNING, FLUX RATES OFF > 3%

  PERCENT DISCREPANCY =             -2.04    PERCENT DISCREPANCY =             -3.30



1
 SUMMARY VOLUMETRIC BUDGET FOR GSFLOW 
 DATE: 11 05 1991              CUMULATIVE TIME STEP:      36
 MODFLOW STRESS PERIOD      1     CURRENT TIME STEP:      36     ITERATIONS:      69

 -----------------------------------------------------------------------------------

   CUMULATIVE VOLUMES               L**3   RATES FOR THIS TIME STEP           L**3/T
   ------------------                      ------------------------

                                     IN                                         IN
                                     --                                         --
        PRECIPITATION =        2.6218D+07          PRECIPITATION =                  
           STREAMFLOW =                               STREAMFLOW =                  
     GW BOUNDARY FLOW =                         GW BOUNDARY FLOW =                  


                                    OUT                                        OUT
                                    ---                                        ---
   EVAPOTRANSPIRATION =        3.4979D+07     EVAPOTRANSPIRATION =         833503.51
           STREAMFLOW =           4229.84             STREAMFLOW =                  
     GW BOUNDARY FLOW =                         GW BOUNDARY FLOW =                  

   INFLOWS - OUTFLOWS =       -8764836.46     INFLOWS - OUTFLOWS =        -833503.51
             --------                                   --------

 TOTAL STORAGE CHANGE =       -8053755.14         STORAGE CHANGE =        -810644.81
       --------------                             --------------
         LAND SURFACE =        2304841.93           LAND SURFACE =        -313045.93
            SOIL ZONE =       -8879320.04              SOIL ZONE =        -426540.97
     UNSATURATED ZONE =       -7937018.31       UNSATURATED ZONE =          -2933.44
       SATURATED ZONE =        6457741.28         SATURATED ZONE =         -68124.47

 OVERALL BUDGET ERROR =        -711081.33           BUDGET ERROR =         -22858.70


  PERCENT DISCREPANCY =             -2.05    PERCENT DISCREPANCY =             -2.78



1
 SUMMARY VOLUMETRIC BUDGET FOR GSFLOW 
 DATE: 11 06 1991              CUMULATIVE TIME STEP:      37
 MODFLOW STRESS PERIOD      1     CURRENT TIME STEP:      37     ITERATIONS:      88

 -----------------------------------------------------------------------------------

   CUMULATIVE VOLUMES               L**3   RATES FOR THIS TIME STEP           L**3/T
   ------------------                      ------------------------

                                     IN                                         IN
                                     --                                         --
        PRECIPITATION =        2.6218D+07          PRECIPITATION =                  
           STREAMFLOW =                               STREAMFLOW =                  
     GW BOUNDARY FLOW =                         GW BOUNDARY FLOW =                  


                                    OUT                                        OUT
                                    ---                                        ---
   EVAPOTRANSPIRATION =        3.5818D+07     EVAPOTRANSPIRATION =         838812.13
           STREAMFLOW =           4229.91             STREAMFLOW =              0.07
     GW BOUNDARY FLOW =                         GW BOUNDARY FLOW =                  

   INFLOWS - OUTFLOWS =       -9603648.67     INFLOWS - OUTFLOWS =        -838812.20
             --------                                   --------

 TOTAL STORAGE CHANGE =       -8873222.92         STORAGE CHANGE =        -819467.78
       --------------                             --------------
         LAND SURFACE =        2035938.07           LAND SURFACE =        -268903.86
            SOIL ZONE =       -9326924.64              SOIL ZONE =        -447604.60
     UNSATURATED ZONE =       -7939765.04       UNSATURATED ZONE =          -2746.74
       SATURATED ZONE =        6357528.70         SATURATED ZONE =        -100212.58

 OVERALL BUDGET ERROR =        -730425.75           BUDGET ERROR =         -19344.42


  PERCENT DISCREPANCY =             -2.06    PERCENT DISCREPANCY =             -2.33



1
 SUMMARY VOLUMETRIC BUDGET FOR GSFLOW 
 DATE: 11 07 1991              CUMULATIVE TIME STEP:      38
 MODFLOW STRESS PERIOD      1     CURRENT TIME STEP:      38     ITERATIONS:      72

 -----------------------------------------------------------------------------------

   CUMULATIVE VOLUMES               L**3   RATES FOR THIS TIME STEP           L**3/T
   ------------------                      ------------------------

                                     IN                                         IN
                                     --                                         --
        PRECIPITATION =        2.6218D+07          PRECIPITATION =                  
           STREAMFLOW =                               STREAMFLOW =                  
     GW BOUNDARY FLOW =                         GW BOUNDARY FLOW =                  


                                    OUT                                        OUT
                                    ---                                        ---
   EVAPOTRANSPIRATION =        3.6396D+07     EVAPOTRANSPIRATION =         577981.71
           STREAMFLOW =           4229.95             STREAMFLOW =              0.04
     GW BOUNDARY FLOW =                         GW BOUNDARY FLOW =                  

   INFLOWS - OUTFLOWS =       -1.0182D+07     INFLOWS - OUTFLOWS =        -577981.75
             --------                                   --------

 TOTAL STORAGE CHANGE =       -9434327.38         STORAGE CHANGE =        -561104.46
       --------------                             --------------
         LAND SURFACE =        1878670.57           LAND SURFACE =        -157267.50
            SOIL ZONE =       -9643389.29              SOIL ZONE =        -316464.65
     UNSATURATED ZONE =       -7942459.62       UNSATURATED ZONE =          -2694.58
       SATURATED ZONE =        6272850.97         SATURATED ZONE =         -84677.73

 OVERALL BUDGET ERROR =        -747303.04           BUDGET ERROR =         -16877.29


  PERCENT DISCREPANCY =             -2.07    PERCENT DISCREPANCY =             -2.96



1
[...]
             --------                                   --------

 TOTAL STORAGE CHANGE =       -4807012.58         STORAGE CHANGE =        -521771.70
       --------------                             --------------
         LAND SURFACE =        2.3494D+07           LAND SURFACE =        -367257.56
            SOIL ZONE =       -1.6275D+07              SOIL ZONE =         -22292.20
     UNSATURATED ZONE =       -7450674.28       UNSATURATED ZONE =          -1020.50
       SATURATED ZONE =       -4575604.07         SATURATED ZONE =        -131201.44

 OVERALL BUDGET ERROR =       -1.7039D+07           BUDGET ERROR =          -7886.54

  ***WARNING, CUMULATIVE VOLUME OFF > 5%

  PERCENT DISCREPANCY =             -5.54    PERCENT DISCREPANCY =             -1.50



1
 SUMMARY VOLUMETRIC BUDGET FOR GSFLOW 
 DATE: 06 12 1992              CUMULATIVE TIME STEP:     256
 MODFLOW STRESS PERIOD      1     CURRENT TIME STEP:     256     ITERATIONS:      35

 -----------------------------------------------------------------------------------

   CUMULATIVE VOLUMES               L**3   RATES FOR THIS TIME STEP           L**3/T
   ------------------                      ------------------------

                                     IN                                         IN
                                     --                                         --
        PRECIPITATION =        2.9432D+08          PRECIPITATION =                  
           STREAMFLOW =                               STREAMFLOW =                  
     GW BOUNDARY FLOW =                         GW BOUNDARY FLOW =                  


                                    OUT                                        OUT
                                    ---                                        ---
   EVAPOTRANSPIRATION =        2.3941D+08     EVAPOTRANSPIRATION =         529774.19
           STREAMFLOW =        7.7290D+07             STREAMFLOW =                  
     GW BOUNDARY FLOW =                         GW BOUNDARY FLOW =                  

   INFLOWS - OUTFLOWS =       -2.2376D+07     INFLOWS - OUTFLOWS =        -529774.19
             --------                                   --------

 TOTAL STORAGE CHANGE =       -5329229.83         STORAGE CHANGE =        -522217.25
       --------------                             --------------
         LAND SURFACE =        2.3125D+07           LAND SURFACE =        -368999.71
            SOIL ZONE =       -1.6297D+07              SOIL ZONE =         -21831.92
     UNSATURATED ZONE =       -7451710.93       UNSATURATED ZONE =          -1036.64
       SATURATED ZONE =       -4705953.05         SATURATED ZONE =        -130348.98

 OVERALL BUDGET ERROR =       -1.7046D+07           BUDGET ERROR =          -7556.94

  ***WARNING, CUMULATIVE VOLUME OFF > 5%

  PERCENT DISCREPANCY =             -5.53    PERCENT DISCREPANCY =             -1.44



1
 SUMMARY VOLUMETRIC BUDGET FOR GSFLOW 
 DATE: 06 13 1992              CUMULATIVE TIME STEP:     257
 MODFLOW STRESS PERIOD      1     CURRENT TIME STEP:     257     ITERATIONS:      62

 -----------------------------------------------------------------------------------

   CUMULATIVE VOLUMES               L**3   RATES FOR THIS TIME STEP           L**3/T
   ------------------                      ------------------------

                                     IN                                         IN
                                     --                                         --
        PRECIPITATION =        2.9432D+08          PRECIPITATION =                  
           STREAMFLOW =                               STREAMFLOW =                  
     GW BOUNDARY FLOW =                         GW BOUNDARY FLOW =                  


                                    OUT                                        OUT
                                    ---                                        ---
   EVAPOTRANSPIRATION =        2.3999D+08     EVAPOTRANSPIRATION =         583422.56
           STREAMFLOW =        7.7290D+07             STREAMFLOW =                  
     GW BOUNDARY FLOW =                         GW BOUNDARY FLOW =                  

   INFLOWS - OUTFLOWS =       -2.2959D+07     INFLOWS - OUTFLOWS =        -583422.56
             --------                                   --------

 TOTAL STORAGE CHANGE =       -5903430.09         STORAGE CHANGE =        -574200.26
       --------------                             --------------
         LAND SURFACE =        2.2717D+07           LAND SURFACE =        -408346.37
            SOIL ZONE =       -1.6321D+07              SOIL ZONE =         -23721.59
     UNSATURATED ZONE =       -7452744.48       UNSATURATED ZONE =          -1033.55
       SATURATED ZONE =       -4847051.80         SATURATED ZONE =        -141098.75

 OVERALL BUDGET ERROR =       -1.7056D+07           BUDGET ERROR =          -9222.30

  ***WARNING, CUMULATIVE VOLUME OFF > 5%

  PERCENT DISCREPANCY =             -5.52    PERCENT DISCREPANCY =             -1.59



1
 SUMMARY VOLUMETRIC BUDGET FOR GSFLOW 
 DATE: 06 14 1992              CUMULATIVE TIME STEP:     258
 MODFLOW STRESS PERIOD      1     CURRENT TIME STEP:     258     ITERATIONS:      35

 -----------------------------------------------------------------------------------

   CUMULATIVE VOLUMES               L**3   RATES FOR THIS TIME STEP           L**3/T
   ------------------                      ------------------------

                                     IN                                         IN
                                     --                                         --
        PRECIPITATION =        2.9432D+08          PRECIPITATION =                  
           STREAMFLOW =                               STREAMFLOW =                  
     GW BOUNDARY FLOW =                         GW BOUNDARY FLOW =                  


                                    OUT                                        OUT
                                    ---                                        ---
   EVAPOTRANSPIRATION =        2.4053D+08     EVAPOTRANSPIRATION =         542850.21
           STREAMFLOW =        7.7290D+07             STREAMFLOW =                  
     GW BOUNDARY FLOW =                         GW BOUNDARY FLOW =                  

   INFLOWS - OUTFLOWS =       -2.3502D+07     INFLOWS - OUTFLOWS =        -542850.21
             --------                                   --------

 TOTAL STORAGE CHANGE =       -6438010.17         STORAGE CHANGE =        -534580.08
       --------------                             --------------
         LAND SURFACE =        2.2339D+07           LAND SURFACE =        -377919.06
            SOIL ZONE =       -1.6342D+07              SOIL ZONE =         -21279.64
     UNSATURATED ZONE =       -7453778.62       UNSATURATED ZONE =          -1034.15
       SATURATED ZONE =       -4981399.04         SATURATED ZONE =        -134347.23

 OVERALL BUDGET ERROR =       -1.7064D+07           BUDGET ERROR =          -8270.14

  ***WARNING, CUMULATIVE VOLUME OFF > 5%

  PERCENT DISCREPANCY =             -5.52    PERCENT DISCREPANCY =             -1.54



1
 SUMMARY VOLUMETRIC BUDGET FOR GSFLOW 
 DATE: 06 15 1992              CUMULATIVE TIME STEP:     259
 MODFLOW STRESS PERIOD      1     CURRENT TIME STEP:     259     ITERATIONS:      67

 -----------------------------------------------------------------------------------

   CUMULATIVE VOLUMES               L**3   RATES FOR THIS TIME STEP           L**3/T
   ------------------                      ------------------------

                                     IN                                         IN
                                     --                                         --
        PRECIPITATION =        2.9432D+08          PRECIPITATION =                  
           STREAMFLOW =                               STREAMFLOW =                  
     GW BOUNDARY FLOW =                         GW BOUNDARY FLOW =                  


                                    OUT                                        OUT
                                    ---                                        ---
   EVAPOTRANSPIRATION =        2.4107D+08     EVAPOTRANSPIRATION =         539184.49
           STREAMFLOW =        7.7290D+07             STREAMFLOW =                  
     GW BOUNDARY FLOW =                         GW BOUNDARY FLOW =                  

   INFLOWS - OUTFLOWS =       -2.4041D+07     INFLOWS - OUTFLOWS =        -539184.49
             --------                                   --------

 TOTAL STORAGE CHANGE =       -6969108.43         STORAGE CHANGE =        -531098.27
       --------------                             --------------
         LAND SURFACE =        2.1966D+07           LAND SURFACE =        -373299.15
            SOIL ZONE =       -1.6363D+07              SOIL ZONE =         -20549.99
     UNSATURATED ZONE =       -7454806.02       UNSATURATED ZONE =          -1027.39
       SATURATED ZONE =       -5117620.77         SATURATED ZONE =        -136221.73

 OVERALL BUDGET ERROR =       -1.7072D+07           BUDGET ERROR =          -8086.23

  ***WARNING, CUMULATIVE VOLUME OFF > 5%

  PERCENT DISCREPANCY =             -5.51    PERCENT DISCREPANCY =             -1.51



1
 SUMMARY VOLUMETRIC BUDGET FOR GSFLOW 
 DATE: 06 16 1992              CUMULATIVE TIME STEP:     260
 MODFLOW STRESS PERIOD      1     CURRENT TIME STEP:     260     ITERATIONS:      34

 -----------------------------------------------------------------------------------

   CUMULATIVE VOLUMES               L**3   RATES FOR THIS TIME STEP           L**3/T
   ------------------                      ------------------------

                                     IN                                         IN
                                     --                                         --
        PRECIPITATION =        2.9432D+08          PRECIPITATION =                  
           STREAMFLOW =                               STREAMFLOW =                  
     GW BOUNDARY FLOW =                         GW BOUNDARY FLOW =                  


                                    OUT                                        OUT
                                    ---                                        ---
   EVAPOTRANSPIRATION =        2.4163D+08     EVAPOTRANSPIRATION =         560515.93
           STREAMFLOW =        7.7290D+07             STREAMFLOW =                  
     GW BOUNDARY FLOW =                         GW BOUNDARY FLOW =                  

   INFLOWS - OUTFLOWS =       -2.4601D+07     INFLOWS - OUTFLOWS =        -560515.93
             --------                                   --------

 TOTAL STORAGE CHANGE =       -7521037.49         STORAGE CHANGE =        -551929.05
       --------------                             --------------
         LAND SURFACE =        2.1575D+07           LAND SURFACE =        -390690.67
            SOIL ZONE =       -1.6384D+07              SOIL ZONE =         -20968.19
     UNSATURATED ZONE =       -7455830.84       UNSATURATED ZONE =          -1024.82
       SATURATED ZONE =       -5256866.14         SATURATED ZONE =        -139245.38

 OVERALL BUDGET ERROR =       -1.7080D+07           BUDGET ERROR =          -8586.88

  ***WARNING, CUMULATIVE VOLUME OFF > 5%

  PERCENT DISCREPANCY =             -5.50    PERCENT DISCREPANCY =             -1.54



1
 SUMMARY VOLUMETRIC BUDGET FOR GSFLOW 
 DATE: 06 17 1992              CUMULATIVE TIME STEP:     261
 MODFLOW STRESS PERIOD      1     CURRENT TIME STEP:     261     ITERATIONS:      57

 -----------------------------------------------------------------------------------

   CUMULATIVE VOLUMES               L**3   RATES FOR THIS TIME STEP           L**3/T
   ------------------                      ------------------------

                                     IN                                         IN
                                     --                                         --
        PRECIPITATION =        2.9432D+08          PRECIPITATION =                  
           STREAMFLOW =                               STREAMFLOW =                  
     GW BOUNDARY FLOW =                         GW BOUNDARY FLOW =                  


                                    OUT                                        OUT
                                    ---                                        ---
   EVAPOTRANSPIRATION =        2.4218D+08     EVAPOTRANSPIRATION =         550966.89
           STREAMFLOW =        7.7290D+07             STREAMFLOW =                  
     GW BOUNDARY FLOW =                         GW BOUNDARY FLOW =                  

   INFLOWS - OUTFLOWS =       -2.5152D+07     INFLOWS - OUTFLOWS =        -550966.89
             --------                                   --------

 TOTAL STORAGE CHANGE =       -8063239.90         STORAGE CHANGE =        -542202.42
       --------------                             --------------
         LAND SURFACE =        2.1192D+07           LAND SURFACE =        -383041.60
            SOIL ZONE =       -1.6404D+07              SOIL ZONE =         -20078.15
     UNSATURATED ZONE =       -7456853.77       UNSATURATED ZONE =          -1022.93
       SATURATED ZONE =       -5394925.88         SATURATED ZONE =        -138059.73

 OVERALL BUDGET ERROR =       -1.7089D+07           BUDGET ERROR =          -8764.47

  ***WARNING, CUMULATIVE VOLUME OFF > 5%

  PERCENT DISCREPANCY =             -5.50    PERCENT DISCREPANCY =             -1.60



1
 SUMMARY VOLUMETRIC BUDGET FOR GSFLOW 
 DATE: 06 18 1992              CUMULATIVE TIME STEP:     262
 MODFLOW STRESS PERIOD      1     CURRENT TIME STEP:     262     ITERATIONS:      64

 -----------------------------------------------------------------------------------

   CUMULATIVE VOLUMES               L**3   RATES FOR THIS TIME STEP           L**3/T
   ------------------                      ------------------------

                                     IN                                         IN
                                     --                                         --
        PRECIPITATION =        2.9432D+08          PRECIPITATION =                  
           STREAMFLOW =                               STREAMFLOW =                  
     GW BOUNDARY FLOW =                         GW BOUNDARY FLOW =                  


                                    OUT                                        OUT
                                    ---                                        ---
   EVAPOTRANSPIRATION =        2.4277D+08     EVAPOTRANSPIRATION =         584101.75
           STREAMFLOW =        7.7290D+07             STREAMFLOW =                  
     GW BOUNDARY FLOW =                         GW BOUNDARY FLOW =                  

   INFLOWS - OUTFLOWS =       -2.5737D+07     INFLOWS - OUTFLOWS =        -584101.75
             --------                                   --------

 TOTAL STORAGE CHANGE =       -8638251.87         STORAGE CHANGE =        -575011.97
       --------------                             --------------
         LAND SURFACE =        2.0785D+07           LAND SURFACE =        -407078.63
            SOIL ZONE =       -1.6424D+07              SOIL ZONE =         -20888.07
     UNSATURATED ZONE =       -7457891.13       UNSATURATED ZONE =          -1037.36
       SATURATED ZONE =       -5540933.79         SATURATED ZONE =        -146007.91

 OVERALL BUDGET ERROR =       -1.7098D+07           BUDGET ERROR =          -9089.78

  ***WARNING, CUMULATIVE VOLUME OFF > 5%

  PERCENT DISCREPANCY =             -5.49    PERCENT DISCREPANCY =             -1.57



1
 SUMMARY VOLUMETRIC BUDGET FOR GSFLOW 
 DATE: 06 19 1992              CUMULATIVE TIME STEP:     263
 MODFLOW STRESS PERIOD      1     CURRENT TIME STEP:     263     ITERATIONS:      30

 -----------------------------------------------------------------------------------

   CUMULATIVE VOLUMES               L**3   RATES FOR THIS TIME STEP           L**3/T
   ------------------                      ------------------------

                                     IN                                         IN
                                     --                                         --
        PRECIPITATION =        2.9432D+08          PRECIPITATION =                  
           STREAMFLOW =                               STREAMFLOW =                  
     GW BOUNDARY FLOW =                         GW BOUNDARY FLOW =                  


                                    OUT                                        OUT
                                    ---                                        ---
   EVAPOTRANSPIRATION =        2.4337D+08     EVAPOTRANSPIRATION =         597448.03
           STREAMFLOW =        7.7290D+07             STREAMFLOW =                  
     GW BOUNDARY FLOW =                         GW BOUNDARY FLOW =                  

   INFLOWS - OUTFLOWS =       -2.6334D+07     INFLOWS - OUTFLOWS =        -597448.03
             --------                                   --------

 TOTAL STORAGE CHANGE =       -9226003.31         STORAGE CHANGE =        -587751.44
       --------------                             --------------
         LAND SURFACE =        2.0371D+07           LAND SURFACE =        -414489.40
            SOIL ZONE =       -1.6445D+07              SOIL ZONE =         -20757.35
     UNSATURATED ZONE =       -7458893.30       UNSATURATED ZONE =          -1002.18
       SATURATED ZONE =       -5692436.30         SATURATED ZONE =        -151502.52

 OVERALL BUDGET ERROR =       -1.7108D+07           BUDGET ERROR =          -9696.59

  ***WARNING, CUMULATIVE VOLUME OFF > 5%

  PERCENT DISCREPANCY =             -5.48    PERCENT DISCREPANCY =             -1.64



1
 SUMMARY VOLUMETRIC BUDGET FOR GSFLOW 
 DATE: 06 20 1992              CUMULATIVE TIME STEP:     264
 MODFLOW STRESS PERIOD      1     CURRENT TIME STEP:     264     ITERATIONS:      67

 -----------------------------------------------------------------------------------

   CUMULATIVE VOLUMES               L**3   RATES FOR THIS TIME STEP           L**3/T
   ------------------                      ------------------------

                                     IN                                         IN
                                     --                                         --
        PRECIPITATION =        2.9432D+08          PRECIPITATION =                  
           STREAMFLOW =                               STREAMFLOW =                  
     GW BOUNDARY FLOW =                         GW BOUNDARY FLOW =                  


                                    OUT                                        OUT
                                    ---                                        ---
   EVAPOTRANSPIRATION =        2.4400D+08     EVAPOTRANSPIRATION =         633066.04
           STREAMFLOW =        7.7290D+07             STREAMFLOW =                  
     GW BOUNDARY FLOW =                         GW BOUNDARY FLOW =                  

   INFLOWS - OUTFLOWS =       -2.6967D+07     INFLOWS - OUTFLOWS =        -633066.04
             --------                                   --------

 TOTAL STORAGE CHANGE =       -9849719.37         STORAGE CHANGE =        -623716.06
       --------------                             --------------
         LAND SURFACE =        1.9929D+07           LAND SURFACE =        -442062.33
            SOIL ZONE =       -1.6467D+07              SOIL ZONE =         -21630.54
     UNSATURATED ZONE =       -7459891.71       UNSATURATED ZONE =           -998.41
       SATURATED ZONE =       -5851461.08         SATURATED ZONE =        -159024.78

 OVERALL BUDGET ERROR =       -1.7117D+07           BUDGET ERROR =          -9349.97

  ***WARNING, CUMULATIVE VOLUME OFF > 5%

  PERCENT DISCREPANCY =             -5.47    PERCENT DISCREPANCY =             -1.49



