1
 SUMMARY VOLUMETRIC BUDGET FOR GSFLOW 
 DATE: 10 01 1991              CUMULATIVE TIME STEP:       1
 MODFLOW STRESS PERIOD      1     CURRENT TIME STEP:       1     ITERATIONS:     228

 -----------------------------------------------------------------------------------

   CUMULATIVE VOLUMES               L**3   RATES FOR THIS TIME STEP           L**3/T
   ------------------                      ------------------------

                                     IN                                         IN
                                     --                                         --
        PRECIPITATION =                            PRECIPITATION =                  
           STREAMFLOW =                               STREAMFLOW =                  
     GW BOUNDARY FLOW =                         GW BOUNDARY FLOW =                  


                                    OUT                                        OUT
                                    ---                                        ---
   EVAPOTRANSPIRATION =        1901690.67     EVAPOTRANSPIRATION =        1901690.67
           STREAMFLOW =                               STREAMFLOW =                  
     GW BOUNDARY FLOW =                         GW BOUNDARY FLOW =                  

   INFLOWS - OUTFLOWS =       -1901690.67     INFLOWS - OUTFLOWS =       -1901690.67
             --------                                   --------

 TOTAL STORAGE CHANGE =       -1882700.76         STORAGE CHANGE =       -1882700.76
       --------------                             --------------
         LAND SURFACE =                             LAND SURFACE =                  
            SOIL ZONE =       -1898801.99              SOIL ZONE =       -1898801.99
     UNSATURATED ZONE =       -7433866.77       UNSATURATED ZONE =       -7433866.77
       SATURATED ZONE =        7449968.00         SATURATED ZONE =        7449968.00

 OVERALL BUDGET ERROR =         -18989.91           BUDGET ERROR =         -18989.91


  PERCENT DISCREPANCY =             -1.00    PERCENT DISCREPANCY =             -1.00



1
 SUMMARY VOLUMETRIC BUDGET FOR GSFLOW 
 DATE: 10 02 1991              CUMULATIVE TIME STEP:       2
 MODFLOW STRESS PERIOD      1     CURRENT TIME STEP:       2     ITERATIONS:      90

 -----------------------------------------------------------------------------------

   CUMULATIVE VOLUMES               L**3   RATES FOR THIS TIME STEP           L**3/T
   ------------------                      ------------------------

                                     IN                                         IN
                                     --                                         --
        PRECIPITATION =                            PRECIPITATION =                  
           STREAMFLOW =                               STREAMFLOW =                  
     GW BOUNDARY FLOW =                         GW BOUNDARY FLOW =                  


                                    OUT                                        OUT
                                    ---                                        ---
   EVAPOTRANSPIRATION =        3832659.64     EVAPOTRANSPIRATION =        1930968.96
           STREAMFLOW =                               STREAMFLOW =                  
     GW BOUNDARY FLOW =                         GW BOUNDARY FLOW =                  

   INFLOWS - OUTFLOWS =       -3832659.64     INFLOWS - OUTFLOWS =       -1930968.96
             --------                                   --------

 TOTAL STORAGE CHANGE =       -3784713.85         STORAGE CHANGE =       -1902013.09
       --------------                             --------------
         LAND SURFACE =                             LAND SURFACE =                  
            SOIL ZONE =       -3816486.75              SOIL ZONE =       -1917684.77
     UNSATURATED ZONE =       -7471189.16       UNSATURATED ZONE =         -37322.38
       SATURATED ZONE =        7502962.06         SATURATED ZONE =          52994.06

 OVERALL BUDGET ERROR =         -47945.79           BUDGET ERROR =         -28955.88


  PERCENT DISCREPANCY =             -1.26    PERCENT DISCREPANCY =             -1.51



1
 SUMMARY VOLUMETRIC BUDGET FOR GSFLOW 
 DATE: 10 03 1991              CUMULATIVE TIME STEP:       3
 MODFLOW STRESS PERIOD      1     CURRENT TIME STEP:       3     ITERATIONS:      97

 -----------------------------------------------------------------------------------

   CUMULATIVE VOLUMES               L**3   RATES FOR THIS TIME STEP           L**3/T
   ------------------                      ------------------------

                                     IN                                         IN
                                     --                                         --
        PRECIPITATION =                            PRECIPITATION =                  
           STREAMFLOW =                               STREAMFLOW =                  
     GW BOUNDARY FLOW =                         GW BOUNDARY FLOW =                  


                                    OUT                                        OUT
                                    ---                                        ---
   EVAPOTRANSPIRATION =        5324771.63     EVAPOTRANSPIRATION =        1492111.99
           STREAMFLOW =                               STREAMFLOW =                  
     GW BOUNDARY FLOW =                         GW BOUNDARY FLOW =                  

   INFLOWS - OUTFLOWS =       -5324771.63     INFLOWS - OUTFLOWS =       -1492111.99
             --------                                   --------

 TOTAL STORAGE CHANGE =       -5249724.69         STORAGE CHANGE =       -1465010.84
       --------------                             --------------
         LAND SURFACE =                             LAND SURFACE =                  
            SOIL ZONE =       -5291055.67              SOIL ZONE =       -1474568.92
     UNSATURATED ZONE =       -7490002.20       UNSATURATED ZONE =         -18813.05
       SATURATED ZONE =        7531333.19         SATURATED ZONE =          28371.12

 OVERALL BUDGET ERROR =         -75046.94           BUDGET ERROR =         -27101.15


  PERCENT DISCREPANCY =             -1.42    PERCENT DISCREPANCY =             -1.83



1
 SUMMARY VOLUMETRIC BUDGET FOR GSFLOW 
 DATE: 10 04 1991              CUMULATIVE TIME STEP:       4
 MODFLOW STRESS PERIOD      1     CURRENT TIME STEP:       4     ITERATIONS:      74

 -----------------------------------------------------------------------------------

   CUMULATIVE VOLUMES               L**3   RATES FOR THIS TIME STEP           L**3/T
   ------------------                      ------------------------

                                     IN                                         IN
                                     --                                         --
        PRECIPITATION =                            PRECIPITATION =                  
           STREAMFLOW =                               STREAMFLOW =                  
     GW BOUNDARY FLOW =                         GW BOUNDARY FLOW =                  


                                    OUT                                        OUT
                                    ---                                        ---
   EVAPOTRANSPIRATION =        6387963.66     EVAPOTRANSPIRATION =        1063192.03
           STREAMFLOW =                               STREAMFLOW =                  
     GW BOUNDARY FLOW =                         GW BOUNDARY FLOW =                  

   INFLOWS - OUTFLOWS =       -6387963.66     INFLOWS - OUTFLOWS =       -1063192.03
             --------                                   --------

 TOTAL STORAGE CHANGE =       -6286379.37         STORAGE CHANGE =       -1036654.69
       --------------                             --------------
         LAND SURFACE =                             LAND SURFACE =                  
            SOIL ZONE =       -6318680.33              SOIL ZONE =       -1027624.65
     UNSATURATED ZONE =       -7504261.42       UNSATURATED ZONE =         -14259.22
       SATURATED ZONE =        7536562.38         SATURATED ZONE =           5229.19

 OVERALL BUDGET ERROR =        -101584.28           BUDGET ERROR =         -26537.34


  PERCENT DISCREPANCY =             -1.60    PERCENT DISCREPANCY =             -2.53



1
 SUMMARY VOLUMETRIC BUDGET FOR GSFLOW 
 DATE: 10 05 1991              CUMULATIVE TIME STEP:       5
 MODFLOW STRESS PERIOD      1     CURRENT TIME STEP:       5     ITERATIONS:      18

 -----------------------------------------------------------------------------------

   CUMULATIVE VOLUMES               L**3   RATES FOR THIS TIME STEP           L**3/T
   ------------------                      ------------------------

                                     IN                                         IN
                                     --                                         --
        PRECIPITATION =         753400.34          PRECIPITATION =         753400.34
           STREAMFLOW =                               STREAMFLOW =                  
     GW BOUNDARY FLOW =                         GW BOUNDARY FLOW =                  


                                    OUT                                        OUT
                                    ---                                        ---
   EVAPOTRANSPIRATION =        7306442.62     EVAPOTRANSPIRATION =         918478.96
           STREAMFLOW =                               STREAMFLOW =                  
     GW BOUNDARY FLOW =                         GW BOUNDARY FLOW =                  

   INFLOWS - OUTFLOWS =       -6553042.27     INFLOWS - OUTFLOWS =        -165078.62
             --------                                   --------

 TOTAL STORAGE CHANGE =       -6428367.48         STORAGE CHANGE =        -141988.10
       --------------                             --------------
         LAND SURFACE =          82123.41           LAND SURFACE =          82123.41
            SOIL ZONE =       -6523192.85              SOIL ZONE =        -204512.52
     UNSATURATED ZONE =       -7515993.88       UNSATURATED ZONE =         -11732.46
       SATURATED ZONE =        7528695.84         SATURATED ZONE =          -7866.53

 OVERALL BUDGET ERROR =        -124674.80           BUDGET ERROR =         -23090.51


  PERCENT DISCREPANCY =             -1.72    PERCENT DISCREPANCY =             -2.55



1
 SUMMARY VOLUMETRIC BUDGET FOR GSFLOW 
 DATE: 10 06 1991              CUMULATIVE TIME STEP:       6
 MODFLOW STRESS PERIOD      1     CURRENT TIME STEP:       6     ITERATIONS:      61

 -----------------------------------------------------------------------------------

   CUMULATIVE VOLUMES               L**3   RATES FOR THIS TIME STEP           L**3/T
   ------------------                      ------------------------

                                     IN                                         IN
                                     --                                         --
        PRECIPITATION =        4821762.42          PRECIPITATION =        4068362.08
           STREAMFLOW =                               STREAMFLOW =                  
     GW BOUNDARY FLOW =                         GW BOUNDARY FLOW =                  


                                    OUT                                        OUT
                                    ---                                        ---
   EVAPOTRANSPIRATION =        8732541.67     EVAPOTRANSPIRATION =        1426099.06
           STREAMFLOW =                               STREAMFLOW =                  
     GW BOUNDARY FLOW =                         GW BOUNDARY FLOW =                  

   INFLOWS - OUTFLOWS =       -3910779.25     INFLOWS - OUTFLOWS =        2642263.02
             --------                                   --------

 TOTAL STORAGE CHANGE =       -3803187.00         STORAGE CHANGE =        2625180.48
       --------------                             --------------
         LAND SURFACE =          83935.03           LAND SURFACE =           1811.62
            SOIL ZONE =       -3939036.69              SOIL ZONE =        2584156.16
     UNSATURATED ZONE =       -7527250.50       UNSATURATED ZONE =         -11256.62
       SATURATED ZONE =        7579165.16         SATURATED ZONE =          50469.31

 OVERALL BUDGET ERROR =        -107592.25           BUDGET ERROR =          17082.55


  PERCENT DISCREPANCY =             -1.24    PERCENT DISCREPANCY =              0.42



1
 SUMMARY VOLUMETRIC BUDGET FOR GSFLOW 
 DATE: 10 07 1991              CUMULATIVE TIME STEP:       7
 MODFLOW STRESS PERIOD      1     CURRENT TIME STEP:       7     ITERATIONS:      24

 -----------------------------------------------------------------------------------

   CUMULATIVE VOLUMES               L**3   RATES FOR THIS TIME STEP           L**3/T
   ------------------                      ------------------------

                                     IN                                         IN
                                     --                                         --
        PRECIPITATION =        1.1703D+07          PRECIPITATION =        6881056.02
           STREAMFLOW =                               STREAMFLOW =                  
     GW BOUNDARY FLOW =                         GW BOUNDARY FLOW =                  


                                    OUT                                        OUT
                                    ---                                        ---
   EVAPOTRANSPIRATION =        1.0400D+07     EVAPOTRANSPIRATION =        1667146.25
           STREAMFLOW =            797.75             STREAMFLOW =            797.75
     GW BOUNDARY FLOW =                         GW BOUNDARY FLOW =                  

   INFLOWS - OUTFLOWS =        1302332.78     INFLOWS - OUTFLOWS =        5213112.02
             --------                                   --------

 TOTAL STORAGE CHANGE =        1271154.82         STORAGE CHANGE =        5074341.82
       --------------                             --------------
         LAND SURFACE =          83935.03           LAND SURFACE =                  
            SOIL ZONE =        1061568.87              SOIL ZONE =        5000605.56
     UNSATURATED ZONE =       -7533430.71       UNSATURATED ZONE =          -6180.20
       SATURATED ZONE =        7659081.62         SATURATED ZONE =          79916.47

 OVERALL BUDGET ERROR =          31177.95           BUDGET ERROR =         138770.20


  PERCENT DISCREPANCY =              0.27    PERCENT DISCREPANCY =              2.04



1
 SUMMARY VOLUMETRIC BUDGET FOR GSFLOW 
 DATE: 10 08 1991              CUMULATIVE TIME STEP:       8
 MODFLOW STRESS PERIOD      1     CURRENT TIME STEP:       8     ITERATIONS:      14

 -----------------------------------------------------------------------------------

   CUMULATIVE VOLUMES               L**3   RATES FOR THIS TIME STEP           L**3/T
   ------------------                      ------------------------

                                     IN                                         IN
                                     --                                         --
        PRECIPITATION =        1.1703D+07          PRECIPITATION =                  
           STREAMFLOW =                               STREAMFLOW =                  
     GW BOUNDARY FLOW =                         GW BOUNDARY FLOW =                  


                                    OUT                                        OUT
                                    ---                                        ---
   EVAPOTRANSPIRATION =        1.1839D+07     EVAPOTRANSPIRATION =        1439593.44
           STREAMFLOW =            797.85             STREAMFLOW =              0.09
     GW BOUNDARY FLOW =                         GW BOUNDARY FLOW =                  

   INFLOWS - OUTFLOWS =        -137260.76     INFLOWS - OUTFLOWS =       -1439593.53
             --------                                   --------

 TOTAL STORAGE CHANGE =        -170427.80         STORAGE CHANGE =       -1441582.62
       --------------                             --------------
         LAND SURFACE =              6.80           LAND SURFACE =         -83928.24
            SOIL ZONE =        -348271.81              SOIL ZONE =       -1409840.68
     UNSATURATED ZONE =       -7538268.09       UNSATURATED ZONE =          -4837.39
       SATURATED ZONE =        7716105.31         SATURATED ZONE =          57023.69

 OVERALL BUDGET ERROR =          33167.04           BUDGET ERROR =           1989.09


  PERCENT DISCREPANCY =              0.28    PERCENT DISCREPANCY =              0.14



1
 SUMMARY VOLUMETRIC BUDGET FOR GSFLOW 
 DATE: 10 09 1991              CUMULATIVE TIME STEP:       9
 MODFLOW STRESS PERIOD      1     CURRENT TIME STEP:       9     ITERATIONS:      15

 -----------------------------------------------------------------------------------

   CUMULATIVE VOLUMES               L**3   RATES FOR THIS TIME STEP           L**3/T
   ------------------                      ------------------------

                                     IN                                         IN
                                     --                                         --
        PRECIPITATION =        1.3109D+07          PRECIPITATION =        1406347.26
           STREAMFLOW =                               STREAMFLOW =                  
     GW BOUNDARY FLOW =                         GW BOUNDARY FLOW =                  


                                    OUT                                        OUT
                                    ---                                        ---
   EVAPOTRANSPIRATION =        1.3138D+07     EVAPOTRANSPIRATION =        1298225.46
           STREAMFLOW =            798.03             STREAMFLOW =              0.19
     GW BOUNDARY FLOW =                         GW BOUNDARY FLOW =                  

   INFLOWS - OUTFLOWS =         -29139.14     INFLOWS - OUTFLOWS =         108121.62
             --------                                   --------

 TOTAL STORAGE CHANGE =         -71126.43         STORAGE CHANGE =          99301.37
       --------------                             --------------
         LAND SURFACE =          82512.78           LAND SURFACE =          82505.98
            SOIL ZONE =        -387577.60              SOIL ZONE =         -39305.79
     UNSATURATED ZONE =       -7542363.08       UNSATURATED ZONE =          -4094.98
       SATURATED ZONE =        7776301.47         SATURATED ZONE =          60196.16

 OVERALL BUDGET ERROR =          41987.29           BUDGET ERROR =           8820.25


  PERCENT DISCREPANCY =              0.32    PERCENT DISCREPANCY =              0.63



1
 SUMMARY VOLUMETRIC BUDGET FOR GSFLOW 
 DATE: 10 10 1991              CUMULATIVE TIME STEP:      10
 MODFLOW STRESS PERIOD      1     CURRENT TIME STEP:      10     ITERATIONS:      17

 -----------------------------------------------------------------------------------

   CUMULATIVE VOLUMES               L**3   RATES FOR THIS TIME STEP           L**3/T
   ------------------                      ------------------------

                                     IN                                         IN
                                     --                                         --
        PRECIPITATION =        1.3109D+07          PRECIPITATION =                  
           STREAMFLOW =                               STREAMFLOW =                  
     GW BOUNDARY FLOW =                         GW BOUNDARY FLOW =                  


                                    OUT                                        OUT
                                    ---                                        ---
   EVAPOTRANSPIRATION =        1.4212D+07     EVAPOTRANSPIRATION =        1074612.31
           STREAMFLOW =           2446.10             STREAMFLOW =           1648.07
     GW BOUNDARY FLOW =                         GW BOUNDARY FLOW =                  

   INFLOWS - OUTFLOWS =       -1105399.52     INFLOWS - OUTFLOWS =       -1076260.38
             --------                                   --------

 TOTAL STORAGE CHANGE =       -1119554.94         STORAGE CHANGE =       -1048428.51
       --------------                             --------------
         LAND SURFACE =             13.36           LAND SURFACE =         -82499.42
            SOIL ZONE =       -1401006.40              SOIL ZONE =       -1013428.81
     UNSATURATED ZONE =       -7546433.83       UNSATURATED ZONE =          -4070.75
       SATURATED ZONE =        7827871.94         SATURATED ZONE =          51570.47

 OVERALL BUDGET ERROR =          14155.42           BUDGET ERROR =         -27831.87


  PERCENT DISCREPANCY =              0.10    PERCENT DISCREPANCY =             -2.62



1
 SUMMARY VOLUMETRIC BUDGET FOR GSFLOW 
 DATE: 10 11 1991              CUMULATIVE TIME STEP:      11
 MODFLOW STRESS PERIOD      1     CURRENT TIME STEP:      11     ITERATIONS:       5

 -----------------------------------------------------------------------------------

   CUMULATIVE VOLUMES               L**3   RATES FOR THIS TIME STEP           L**3/T
   ------------------                      ------------------------

                                     IN                                         IN
                                     --                                         --
        PRECIPITATION =        1.3109D+07          PRECIPITATION =                  
           STREAMFLOW =                               STREAMFLOW =                  
     GW BOUNDARY FLOW =                         GW BOUNDARY FLOW =                  


                                    OUT                                        OUT
                                    ---                                        ---
   EVAPOTRANSPIRATION =        1.5186D+07     EVAPOTRANSPIRATION =         974023.40
           STREAMFLOW =           4160.79             STREAMFLOW =           1714.69
     GW BOUNDARY FLOW =                         GW BOUNDARY FLOW =                  

   INFLOWS - OUTFLOWS =       -2081137.60     INFLOWS - OUTFLOWS =        -975738.09
             --------                                   --------

 TOTAL STORAGE CHANGE =       -2055420.42         STORAGE CHANGE =        -935865.48
       --------------                             --------------
         LAND SURFACE =              5.40           LAND SURFACE =             -7.95
            SOIL ZONE =       -2372828.93              SOIL ZONE =        -971822.53
     UNSATURATED ZONE =       -7549733.63       UNSATURATED ZONE =          -3299.80
       SATURATED ZONE =        7867136.75         SATURATED ZONE =          39264.81

 OVERALL BUDGET ERROR =         -25717.19           BUDGET ERROR =         -39872.61

  ***WARNING, FLUX RATES OFF > 3%

  PERCENT DISCREPANCY =             -0.17    PERCENT DISCREPANCY =             -4.17



1
 SUMMARY VOLUMETRIC BUDGET FOR GSFLOW 
 DATE: 10 12 1991              CUMULATIVE TIME STEP:      12
 MODFLOW STRESS PERIOD      1     CURRENT TIME STEP:      12     ITERATIONS:       9

 -----------------------------------------------------------------------------------

   CUMULATIVE VOLUMES               L**3   RATES FOR THIS TIME STEP           L**3/T
   ------------------                      ------------------------

                                     IN                                         IN
                                     --                                         --
        PRECIPITATION =        1.3109D+07          PRECIPITATION =                  
           STREAMFLOW =                               STREAMFLOW =                  
     GW BOUNDARY FLOW =                         GW BOUNDARY FLOW =                  


                                    OUT                                        OUT
                                    ---                                        ---
   EVAPOTRANSPIRATION =        1.5990D+07     EVAPOTRANSPIRATION =         803862.12
           STREAMFLOW =           4648.98             STREAMFLOW =            488.19
     GW BOUNDARY FLOW =                         GW BOUNDARY FLOW =                  

   INFLOWS - OUTFLOWS =       -2885487.92     INFLOWS - OUTFLOWS =        -804350.31
             --------                                   --------

 TOTAL STORAGE CHANGE =       -2814121.63         STORAGE CHANGE =        -758701.21
       --------------                             --------------
         LAND SURFACE =              4.37           LAND SURFACE =             -1.03
            SOIL ZONE =       -3162867.66              SOIL ZONE =        -790038.73
     UNSATURATED ZONE =       -7553214.24       UNSATURATED ZONE =          -3480.61
       SATURATED ZONE =        7901955.91         SATURATED ZONE =          34819.16

 OVERALL BUDGET ERROR =         -71366.29           BUDGET ERROR =         -45649.10

  ***WARNING, FLUX RATES OFF > 3%

  PERCENT DISCREPANCY =             -0.45    PERCENT DISCREPANCY =             -5.84



1
 SUMMARY VOLUMETRIC BUDGET FOR GSFLOW 
 DATE: 10 13 1991              CUMULATIVE TIME STEP:      13
 MODFLOW STRESS PERIOD      1     CURRENT TIME STEP:      13     ITERATIONS:       4

 -----------------------------------------------------------------------------------

   CUMULATIVE VOLUMES               L**3   RATES FOR THIS TIME STEP           L**3/T
   ------------------                      ------------------------

                                     IN                                         IN
                                     --                                         --
        PRECIPITATION =        1.3109D+07          PRECIPITATION =                  
           STREAMFLOW =                               STREAMFLOW =                  
     GW BOUNDARY FLOW =                         GW BOUNDARY FLOW =                  


                                    OUT                                        OUT
                                    ---                                        ---
   EVAPOTRANSPIRATION =        1.6749D+07     EVAPOTRANSPIRATION =         759137.13
           STREAMFLOW =           6454.89             STREAMFLOW =           1805.91
     GW BOUNDARY FLOW =                         GW BOUNDARY FLOW =                  

   INFLOWS - OUTFLOWS =       -3646430.95     INFLOWS - OUTFLOWS =        -760943.04
             --------                                   --------

 TOTAL STORAGE CHANGE =       -3520407.57         STORAGE CHANGE =        -706285.94
       --------------                             --------------
         LAND SURFACE =              4.14           LAND SURFACE =             -0.23
            SOIL ZONE =       -3891365.10              SOIL ZONE =        -728497.44
     UNSATURATED ZONE =       -7555948.49       UNSATURATED ZONE =          -2734.25
       SATURATED ZONE =        7926901.88         SATURATED ZONE =          24945.97

 OVERALL BUDGET ERROR =        -126023.38           BUDGET ERROR =         -54657.09

  ***WARNING, FLUX RATES OFF > 3%

  PERCENT DISCREPANCY =             -0.75    PERCENT DISCREPANCY =             -7.45



1
 SUMMARY VOLUMETRIC BUDGET FOR GSFLOW 
 DATE: 10 14 1991              CUMULATIVE TIME STEP:      14
 MODFLOW STRESS PERIOD      1     CURRENT TIME STEP:      14     ITERATIONS:       3

 -----------------------------------------------------------------------------------

   CUMULATIVE VOLUMES               L**3   RATES FOR THIS TIME STEP           L**3/T
   ------------------                      ------------------------

                                     IN                                         IN
                                     --                                         --
        PRECIPITATION =        1.3109D+07          PRECIPITATION =                  
           STREAMFLOW =                               STREAMFLOW =                  
     GW BOUNDARY FLOW =                         GW BOUNDARY FLOW =                  


                                    OUT                                        OUT
                                    ---                                        ---
   EVAPOTRANSPIRATION =        1.7400D+07     EVAPOTRANSPIRATION =         650464.88
           STREAMFLOW =           9954.73             STREAMFLOW =           3499.84
     GW BOUNDARY FLOW =                         GW BOUNDARY FLOW =                  

   INFLOWS - OUTFLOWS =       -4300395.68     INFLOWS - OUTFLOWS =        -653964.72
             --------                                   --------

 TOTAL STORAGE CHANGE =       -4113370.18         STORAGE CHANGE =        -592962.61
       --------------                             --------------
         LAND SURFACE =              4.04           LAND SURFACE =             -0.10
            SOIL ZONE =       -4502784.01              SOIL ZONE =        -611418.91
     UNSATURATED ZONE =       -7558311.40       UNSATURATED ZONE =          -2362.91
       SATURATED ZONE =        7947721.19         SATURATED ZONE =          20819.31

 OVERALL BUDGET ERROR =        -187025.50           BUDGET ERROR =         -61002.11

  ***WARNING, FLUX RATES OFF > 3%

  PERCENT DISCREPANCY =             -1.08    PERCENT DISCREPANCY =             -9.78



1
 SUMMARY VOLUMETRIC BUDGET FOR GSFLOW 
 DATE: 10 15 1991              CUMULATIVE TIME STEP:      15
 MODFLOW STRESS PERIOD      1     CURRENT TIME STEP:      15     ITERATIONS:       3

 -----------------------------------------------------------------------------------

   CUMULATIVE VOLUMES               L**3   RATES FOR THIS TIME STEP           L**3/T
   ------------------                      ------------------------

                                     IN                                         IN
                                     --                                         --
        PRECIPITATION =        1.3109D+07          PRECIPITATION =                  
           STREAMFLOW =                               STREAMFLOW =                  
     GW BOUNDARY FLOW =                         GW BOUNDARY FLOW =                  


                                    OUT                                        OUT
                                    ---                                        ---
   EVAPOTRANSPIRATION =        1.7890D+07     EVAPOTRANSPIRATION =         490656.08
           STREAMFLOW =          16372.88             STREAMFLOW =           6418.14
     GW BOUNDARY FLOW =                         GW BOUNDARY FLOW =                  

   INFLOWS - OUTFLOWS =       -4797469.90     INFLOWS - OUTFLOWS =        -497074.23
             --------                                   --------

 TOTAL STORAGE CHANGE =       -4543446.04         STORAGE CHANGE =        -430075.86
       --------------                             --------------
         LAND SURFACE =              4.01           LAND SURFACE =             -0.03
            SOIL ZONE =       -4960796.94              SOIL ZONE =        -458012.93
     UNSATURATED ZONE =       -7560583.74       UNSATURATED ZONE =          -2272.34
       SATURATED ZONE =        7977930.62         SATURATED ZONE =          30209.44

 OVERALL BUDGET ERROR =        -254023.87           BUDGET ERROR =         -66998.37

  ***CAUTION, FLUX RATES OFF > 10%

  PERCENT DISCREPANCY =             -1.43    PERCENT DISCREPANCY =            -14.45



1
 SUMMARY VOLUMETRIC BUDGET FOR GSFLOW 
 DATE: 10 16 1991              CUMULATIVE TIME STEP:      16
 MODFLOW STRESS PERIOD      1     CURRENT TIME STEP:      16     ITERATIONS:       4

 -----------------------------------------------------------------------------------

   CUMULATIVE VOLUMES               L**3   RATES FOR THIS TIME STEP           L**3/T
   ------------------                      ------------------------

                                     IN                                         IN
                                     --                                         --
        PRECIPITATION =        1.3109D+07          PRECIPITATION =                  
           STREAMFLOW =                               STREAMFLOW =                  
     GW BOUNDARY FLOW =                         GW BOUNDARY FLOW =                  


                                    OUT                                        OUT
                                    ---                                        ---
   EVAPOTRANSPIRATION =        1.8281D+07     EVAPOTRANSPIRATION =         390601.01
           STREAMFLOW =          27327.59             STREAMFLOW =          10954.71
     GW BOUNDARY FLOW =                         GW BOUNDARY FLOW =                  

   INFLOWS - OUTFLOWS =       -5199025.63     INFLOWS - OUTFLOWS =        -401555.73
             --------                                   --------

 TOTAL STORAGE CHANGE =       -4872070.02         STORAGE CHANGE =        -328623.98
       --------------                             --------------
         LAND SURFACE =              4.01           LAND SURFACE =       -2.6675D-04
            SOIL ZONE =       -5323359.79              SOIL ZONE =        -362562.85
     UNSATURATED ZONE =       -7563007.13       UNSATURATED ZONE =          -2423.39
       SATURATED ZONE =        8014292.89         SATURATED ZONE =          36362.27

 OVERALL BUDGET ERROR =        -326955.61           BUDGET ERROR =         -72931.75

  ***CAUTION, FLUX RATES OFF > 10%

  PERCENT DISCREPANCY =             -1.80    PERCENT DISCREPANCY =            -19.98



1
 SUMMARY VOLUMETRIC BUDGET FOR GSFLOW 
 DATE: 10 17 1991              CUMULATIVE TIME STEP:      17
 MODFLOW STRESS PERIOD      1     CURRENT TIME STEP:      17     ITERATIONS:       4

 -----------------------------------------------------------------------------------

   CUMULATIVE VOLUMES               L**3   RATES FOR THIS TIME STEP           L**3/T
   ------------------                      ------------------------

                                     IN                                         IN
                                     --                                         --
        PRECIPITATION =        1.3109D+07          PRECIPITATION =                  
           STREAMFLOW =                               STREAMFLOW =                  
     GW BOUNDARY FLOW =                         GW BOUNDARY FLOW =                  


                                    OUT                                        OUT
                                    ---                                        ---
   EVAPOTRANSPIRATION =        1.8748D+07     EVAPOTRANSPIRATION =         467546.18
           STREAMFLOW =          40781.11             STREAMFLOW =          13453.52
     GW BOUNDARY FLOW =                         GW BOUNDARY FLOW =                  

   INFLOWS - OUTFLOWS =       -5680025.33     INFLOWS - OUTFLOWS =        -480999.70
             --------                                   --------

 TOTAL STORAGE CHANGE =       -5274305.79         STORAGE CHANGE =        -402235.77
       --------------                             --------------
         LAND SURFACE =              4.01           LAND SURFACE =                  
            SOIL ZONE =       -5742890.59              SOIL ZONE =        -419530.80
     UNSATURATED ZONE =       -7565230.95       UNSATURATED ZONE =          -2223.82
       SATURATED ZONE =        8033811.73         SATURATED ZONE =          19518.84

 OVERALL BUDGET ERROR =        -405719.54           BUDGET ERROR =         -78763.93

  ***CAUTION, FLUX RATES OFF > 10%

  PERCENT DISCREPANCY =             -2.18    PERCENT DISCREPANCY =            -17.84



1
 SUMMARY VOLUMETRIC BUDGET FOR GSFLOW 
 DATE: 10 18 1991              CUMULATIVE TIME STEP:      18
 MODFLOW STRESS PERIOD      1     CURRENT TIME STEP:      18     ITERATIONS:       3

 -----------------------------------------------------------------------------------

   CUMULATIVE VOLUMES               L**3   RATES FOR THIS TIME STEP           L**3/T
   ------------------                      ------------------------

                                     IN                                         IN
                                     --                                         --
        PRECIPITATION =        1.3109D+07          PRECIPITATION =                  
           STREAMFLOW =                               STREAMFLOW =                  
     GW BOUNDARY FLOW =                         GW BOUNDARY FLOW =                  


                                    OUT                                        OUT
                                    ---                                        ---
   EVAPOTRANSPIRATION =        1.9215D+07     EVAPOTRANSPIRATION =         466547.14
           STREAMFLOW =          59126.38             STREAMFLOW =          18345.27
     GW BOUNDARY FLOW =                         GW BOUNDARY FLOW =                  

   INFLOWS - OUTFLOWS =       -6164917.75     INFLOWS - OUTFLOWS =        -484892.41
             --------                                   --------

 TOTAL STORAGE CHANGE =       -5673830.34         STORAGE CHANGE =        -399524.55
       --------------                             --------------
         LAND SURFACE =              4.01           LAND SURFACE =                  
            SOIL ZONE =       -6151741.07              SOIL ZONE =        -408850.48
     UNSATURATED ZONE =       -7567115.60       UNSATURATED ZONE =          -1884.65
       SATURATED ZONE =        8045022.31         SATURATED ZONE =          11210.58

 OVERALL BUDGET ERROR =        -491087.41           BUDGET ERROR =         -85367.86

  ***CAUTION, FLUX RATES OFF > 10%

  PERCENT DISCREPANCY =             -2.58    PERCENT DISCREPANCY =            -19.30



1
 SUMMARY VOLUMETRIC BUDGET FOR GSFLOW 
 DATE: 10 19 1991              CUMULATIVE TIME STEP:      19
 MODFLOW STRESS PERIOD      1     CURRENT TIME STEP:      19     ITERATIONS:       5

 -----------------------------------------------------------------------------------

   CUMULATIVE VOLUMES               L**3   RATES FOR THIS TIME STEP           L**3/T
   ------------------                      ------------------------

                                     IN                                         IN
                                     --                                         --
        PRECIPITATION =        1.3109D+07          PRECIPITATION =                  
           STREAMFLOW =                               STREAMFLOW =                  
     GW BOUNDARY FLOW =                         GW BOUNDARY FLOW =                  


                                    OUT                                        OUT
                                    ---                                        ---
   EVAPOTRANSPIRATION =        1.9721D+07     EVAPOTRANSPIRATION =         506014.48
           STREAMFLOW =          84297.39             STREAMFLOW =          25171.01
     GW BOUNDARY FLOW =                         GW BOUNDARY FLOW =                  

   INFLOWS - OUTFLOWS =       -6696103.23     INFLOWS - OUTFLOWS =        -531185.49
             --------                                   --------

 TOTAL STORAGE CHANGE =       -6110423.49         STORAGE CHANGE =        -436593.15
       --------------                             --------------
         LAND SURFACE =              4.01           LAND SURFACE =                  
            SOIL ZONE =       -6583767.29              SOIL ZONE =        -432026.22
     UNSATURATED ZONE =       -7569217.21       UNSATURATED ZONE =          -2101.62
       SATURATED ZONE =        8042557.00         SATURATED ZONE =          -2465.31

 OVERALL BUDGET ERROR =        -585679.74           BUDGET ERROR =         -94592.34

  ***CAUTION, FLUX RATES OFF > 10%

  PERCENT DISCREPANCY =             -3.00    PERCENT DISCREPANCY =            -19.55



1
 SUMMARY VOLUMETRIC BUDGET FOR GSFLOW 
 DATE: 10 20 1991              CUMULATIVE TIME STEP:      20
 MODFLOW STRESS PERIOD      1     CURRENT TIME STEP:      20     ITERATIONS:       3

 -----------------------------------------------------------------------------------

   CUMULATIVE VOLUMES               L**3   RATES FOR THIS TIME STEP           L**3/T
   ------------------                      ------------------------

                                     IN                                         IN
                                     --                                         --
        PRECIPITATION =        1.3109D+07          PRECIPITATION =                  
           STREAMFLOW =                               STREAMFLOW =                  
     GW BOUNDARY FLOW =                         GW BOUNDARY FLOW =                  


                                    OUT                                        OUT
                                    ---                                        ---
   EVAPOTRANSPIRATION =        2.0136D+07     EVAPOTRANSPIRATION =         415458.93
           STREAMFLOW =         111330.36             STREAMFLOW =          27032.97
     GW BOUNDARY FLOW =                         GW BOUNDARY FLOW =                  

   INFLOWS - OUTFLOWS =       -7138595.13     INFLOWS - OUTFLOWS =        -442491.90
             --------                                   --------

 TOTAL STORAGE CHANGE =       -6456065.32         STORAGE CHANGE =        -345641.83
       --------------                             --------------
         LAND SURFACE =              4.01           LAND SURFACE =                  
            SOIL ZONE =       -6930752.36              SOIL ZONE =        -346985.07
     UNSATURATED ZONE =       -7570948.02       UNSATURATED ZONE =          -1730.81
       SATURATED ZONE =        8045631.05         SATURATED ZONE =           3074.05

 OVERALL BUDGET ERROR =        -682529.81           BUDGET ERROR =         -96850.07

  ***CAUTION, FLUX RATES OFF > 10%

  PERCENT DISCREPANCY =             -3.43    PERCENT DISCREPANCY =            -24.58



1
 SUMMARY VOLUMETRIC BUDGET FOR GSFLOW 
 DATE: 10 21 1991              CUMULATIVE TIME STEP:      21
 MODFLOW STRESS PERIOD      1     CURRENT TIME STEP:      21     ITERATIONS:       3

 -----------------------------------------------------------------------------------

   CUMULATIVE VOLUMES               L**3   RATES FOR THIS TIME STEP           L**3/T
   ------------------                      ------------------------

                                     IN                                         IN
                                     --                                         --
        PRECIPITATION =        1.3109D+07          PRECIPITATION =                  
           STREAMFLOW =                               STREAMFLOW =                  
     GW BOUNDARY FLOW =                         GW BOUNDARY FLOW =                  


                                    OUT                                        OUT
                                    ---                                        ---
   EVAPOTRANSPIRATION =        2.0467D+07     EVAPOTRANSPIRATION =         330910.21
           STREAMFLOW =         140111.92             STREAMFLOW =          28781.56
     GW BOUNDARY FLOW =                         GW BOUNDARY FLOW =                  

   INFLOWS - OUTFLOWS =       -7498286.90     INFLOWS - OUTFLOWS =        -359691.77
             --------                                   --------

 TOTAL STORAGE CHANGE =       -6720237.46         STORAGE CHANGE =        -264172.14
       --------------                             --------------
         LAND SURFACE =              4.01           LAND SURFACE =                  
            SOIL ZONE =       -7204632.03              SOIL ZONE =        -273879.67
     UNSATURATED ZONE =       -7572630.36       UNSATURATED ZONE =          -1682.34
       SATURATED ZONE =        8057020.92         SATURATED ZONE =          11389.88

 OVERALL BUDGET ERROR =        -778049.44           BUDGET ERROR =         -95519.63

  ***CAUTION, FLUX RATES OFF > 10%

  PERCENT DISCREPANCY =             -3.85    PERCENT DISCREPANCY =            -30.62



1
 SUMMARY VOLUMETRIC BUDGET FOR GSFLOW 
 DATE: 10 22 1991              CUMULATIVE TIME STEP:      22
 MODFLOW STRESS PERIOD      1     CURRENT TIME STEP:      22     ITERATIONS:       4

 -----------------------------------------------------------------------------------

   CUMULATIVE VOLUMES               L**3   RATES FOR THIS TIME STEP           L**3/T
   ------------------                      ------------------------

                                     IN                                         IN
                                     --                                         --
        PRECIPITATION =        1.3109D+07          PRECIPITATION =                  
           STREAMFLOW =                               STREAMFLOW =                  
     GW BOUNDARY FLOW =                         GW BOUNDARY FLOW =                  


                                    OUT                                        OUT
                                    ---                                        ---
   EVAPOTRANSPIRATION =        2.0695D+07     EVAPOTRANSPIRATION =         227988.11
           STREAMFLOW =         176423.13             STREAMFLOW =          36311.21
     GW BOUNDARY FLOW =                         GW BOUNDARY FLOW =                  

   INFLOWS - OUTFLOWS =       -7762586.22     INFLOWS - OUTFLOWS =        -264299.32
             --------                                   --------

 TOTAL STORAGE CHANGE =       -6885237.81         STORAGE CHANGE =        -165000.35
       --------------                             --------------
         LAND SURFACE =              4.01           LAND SURFACE =                  
            SOIL ZONE =       -7394490.24              SOIL ZONE =        -189858.21
     UNSATURATED ZONE =       -7574430.58       UNSATURATED ZONE =          -1800.22
       SATURATED ZONE =        8083679.00         SATURATED ZONE =          26658.08

 OVERALL BUDGET ERROR =        -877348.41           BUDGET ERROR =         -99298.98

  ***CAUTION, FLUX RATES OFF > 10%

  PERCENT DISCREPANCY =             -4.29    PERCENT DISCREPANCY =            -46.26



1
 SUMMARY VOLUMETRIC BUDGET FOR GSFLOW 
 DATE: 10 23 1991              CUMULATIVE TIME STEP:      23
 MODFLOW STRESS PERIOD      1     CURRENT TIME STEP:      23     ITERATIONS:       3

 -----------------------------------------------------------------------------------

   CUMULATIVE VOLUMES               L**3   RATES FOR THIS TIME STEP           L**3/T
   ------------------                      ------------------------

                                     IN                                         IN
                                     --                                         --
        PRECIPITATION =        1.3109D+07          PRECIPITATION =                  
           STREAMFLOW =                               STREAMFLOW =                  
     GW BOUNDARY FLOW =                         GW BOUNDARY FLOW =                  


                                    OUT                                        OUT
                                    ---                                        ---
   EVAPOTRANSPIRATION =        2.0876D+07     EVAPOTRANSPIRATION =         180760.52
           STREAMFLOW =         217887.17             STREAMFLOW =          41464.04
     GW BOUNDARY FLOW =                         GW BOUNDARY FLOW =                  

   INFLOWS - OUTFLOWS =       -7984810.78     INFLOWS - OUTFLOWS =        -222224.56
             --------                                   --------

 TOTAL STORAGE CHANGE =       -7005515.20         STORAGE CHANGE =        -120277.39
       --------------                             --------------
         LAND SURFACE =              4.01           LAND SURFACE =                  
            SOIL ZONE =       -7545546.79              SOIL ZONE =        -151056.55
     UNSATURATED ZONE =       -7576031.88       UNSATURATED ZONE =          -1601.30
       SATURATED ZONE =        8116059.45         SATURATED ZONE =          32380.45

 OVERALL BUDGET ERROR =        -979295.58           BUDGET ERROR =        -101947.16

  ***CAUTION, FLUX RATES OFF > 10%

  PERCENT DISCREPANCY =             -4.75    PERCENT DISCREPANCY =            -59.53



1
 SUMMARY VOLUMETRIC BUDGET FOR GSFLOW 
 DATE: 10 24 1991              CUMULATIVE TIME STEP:      24
 MODFLOW STRESS PERIOD      1     CURRENT TIME STEP:      24     ITERATIONS:       3

 -----------------------------------------------------------------------------------

   CUMULATIVE VOLUMES               L**3   RATES FOR THIS TIME STEP           L**3/T
   ------------------                      ------------------------

                                     IN                                         IN
                                     --                                         --
        PRECIPITATION =        1.3109D+07          PRECIPITATION =                  
           STREAMFLOW =                               STREAMFLOW =                  
     GW BOUNDARY FLOW =                         GW BOUNDARY FLOW =                  


                                    OUT                                        OUT
                                    ---                                        ---
   EVAPOTRANSPIRATION =        2.1023D+07     EVAPOTRANSPIRATION =         146861.03
           STREAMFLOW =         257479.82             STREAMFLOW =          39592.65
     GW BOUNDARY FLOW =                         GW BOUNDARY FLOW =                  

   INFLOWS - OUTFLOWS =       -8171264.46     INFLOWS - OUTFLOWS =        -186453.69
             --------                                   --------

 TOTAL STORAGE CHANGE =       -7094825.61         STORAGE CHANGE =         -89310.41
       --------------                             --------------
         LAND SURFACE =              4.01           LAND SURFACE =                  
            SOIL ZONE =       -7668943.70              SOIL ZONE =        -123396.91
     UNSATURATED ZONE =       -7577603.78       UNSATURATED ZONE =          -1571.90
       SATURATED ZONE =        8151717.86         SATURATED ZONE =          35658.41

 OVERALL BUDGET ERROR =       -1076438.85           BUDGET ERROR =         -97143.28

  ***WARNING, CUMULATIVE VOLUME OFF > 5%
  ***CAUTION, FLUX RATES OFF > 10%

  PERCENT DISCREPANCY =             -5.19    PERCENT DISCREPANCY =            -70.45



1
 SUMMARY VOLUMETRIC BUDGET FOR GSFLOW 
 DATE: 10 25 1991              CUMULATIVE TIME STEP:      25
 MODFLOW STRESS PERIOD      1     CURRENT TIME STEP:      25     ITERATIONS:      42

 -----------------------------------------------------------------------------------

   CUMULATIVE VOLUMES               L**3   RATES FOR THIS TIME STEP           L**3/T
   ------------------                      ------------------------

                                     IN                                         IN
                                     --                                         --
        PRECIPITATION =        1.3863D+07          PRECIPITATION =         753400.34
           STREAMFLOW =                               STREAMFLOW =                  
     GW BOUNDARY FLOW =                         GW BOUNDARY FLOW =                  


                                    OUT                                        OUT
                                    ---                                        ---
   EVAPOTRANSPIRATION =        2.1138D+07     EVAPOTRANSPIRATION =         115357.65
           STREAMFLOW =         281054.04             STREAMFLOW =          23574.22
     GW BOUNDARY FLOW =                         GW BOUNDARY FLOW =                  

   INFLOWS - OUTFLOWS =       -7556795.99     INFLOWS - OUTFLOWS =         614468.47
             --------                                   --------

 TOTAL STORAGE CHANGE =       -6418812.94         STORAGE CHANGE =         676012.67
       --------------                             --------------
         LAND SURFACE =          82123.41           LAND SURFACE =          82119.40
            SOIL ZONE =       -7109825.34              SOIL ZONE =         559118.37
     UNSATURATED ZONE =       -7579832.88       UNSATURATED ZONE =          -2229.10
       SATURATED ZONE =        8188721.86         SATURATED ZONE =          37004.00

 OVERALL BUDGET ERROR =       -1137983.05           BUDGET ERROR =         -61544.20

  ***WARNING, CUMULATIVE VOLUME OFF > 5%
  ***WARNING, FLUX RATES OFF > 3%

  PERCENT DISCREPANCY =             -5.46    PERCENT DISCREPANCY =             -7.85



1
 SUMMARY VOLUMETRIC BUDGET FOR GSFLOW 
 DATE: 10 26 1991              CUMULATIVE TIME STEP:      26
 MODFLOW STRESS PERIOD      1     CURRENT TIME STEP:      26     ITERATIONS:      31

 -----------------------------------------------------------------------------------

   CUMULATIVE VOLUMES               L**3   RATES FOR THIS TIME STEP           L**3/T
   ------------------                      ------------------------

                                     IN                                         IN
                                     --                                         --
        PRECIPITATION =        1.7931D+07          PRECIPITATION =        4068362.08
           STREAMFLOW =                               STREAMFLOW =                  
     GW BOUNDARY FLOW =                         GW BOUNDARY FLOW =                  


                                    OUT                                        OUT
                                    ---                                        ---
   EVAPOTRANSPIRATION =        2.1337D+07     EVAPOTRANSPIRATION =         198983.98
           STREAMFLOW =         295533.18             STREAMFLOW =          14479.13
     GW BOUNDARY FLOW =                         GW BOUNDARY FLOW =                  

   INFLOWS - OUTFLOWS =       -3701897.02     INFLOWS - OUTFLOWS =        3854898.97
             --------                                   --------

 TOTAL STORAGE CHANGE =       -2596859.73         STORAGE CHANGE =        3821953.21
       --------------                             --------------
         LAND SURFACE =          83935.03           LAND SURFACE =           1811.62
            SOIL ZONE =       -3335766.91              SOIL ZONE =        3774058.43
     UNSATURATED ZONE =       -7580802.85       UNSATURATED ZONE =           -969.97
       SATURATED ZONE =        8235774.98         SATURATED ZONE =          47053.12

 OVERALL BUDGET ERROR =       -1105037.29           BUDGET ERROR =          32945.76

  ***WARNING, CUMULATIVE VOLUME OFF > 5%

  PERCENT DISCREPANCY =             -5.24    PERCENT DISCREPANCY =              0.81



1
 SUMMARY VOLUMETRIC BUDGET FOR GSFLOW 
 DATE: 10 27 1991              CUMULATIVE TIME STEP:      27
 MODFLOW STRESS PERIOD      1     CURRENT TIME STEP:      27     ITERATIONS:      31

 -----------------------------------------------------------------------------------

   CUMULATIVE VOLUMES               L**3   RATES FOR THIS TIME STEP           L**3/T
   ------------------                      ------------------------

                                     IN                                         IN
                                     --                                         --
        PRECIPITATION =        2.4812D+07          PRECIPITATION =        6881056.02
           STREAMFLOW =                               STREAMFLOW =                  
     GW BOUNDARY FLOW =                         GW BOUNDARY FLOW =                  


                                    OUT                                        OUT
                                    ---                                        ---
   EVAPOTRANSPIRATION =        2.1617D+07     EVAPOTRANSPIRATION =         279564.35
           STREAMFLOW =         317453.97             STREAMFLOW =          21920.80
     GW BOUNDARY FLOW =                         GW BOUNDARY FLOW =                  

   INFLOWS - OUTFLOWS =        2877673.86     INFLOWS - OUTFLOWS =        6579570.88
             --------                                   --------

 TOTAL STORAGE CHANGE =        3795093.06         STORAGE CHANGE =        6391952.79
       --------------                             --------------
         LAND SURFACE =          83935.03           LAND SURFACE =                  
            SOIL ZONE =        2990704.22              SOIL ZONE =        6326471.13
     UNSATURATED ZONE =       -7580175.32       UNSATURATED ZONE =            627.53
       SATURATED ZONE =        8300629.12         SATURATED ZONE =          64854.14

 OVERALL BUDGET ERROR =        -917419.20           BUDGET ERROR =         187618.09


  PERCENT DISCREPANCY =             -3.63    PERCENT DISCREPANCY =              2.76



1
 SUMMARY VOLUMETRIC BUDGET FOR GSFLOW 
 DATE: 10 28 1991              CUMULATIVE TIME STEP:      28
 MODFLOW STRESS PERIOD      1     CURRENT TIME STEP:      28     ITERATIONS:       7

 -----------------------------------------------------------------------------------

   CUMULATIVE VOLUMES               L**3   RATES FOR THIS TIME STEP           L**3/T
   ------------------                      ------------------------

                                     IN                                         IN
                                     --                                         --
        PRECIPITATION =        2.4812D+07          PRECIPITATION =                  
           STREAMFLOW =                               STREAMFLOW =                  
     GW BOUNDARY FLOW =                         GW BOUNDARY FLOW =                  


                                    OUT                                        OUT
                                    ---                                        ---
   EVAPOTRANSPIRATION =        2.2163D+07     EVAPOTRANSPIRATION =         545779.80
           STREAMFLOW =         334631.76             STREAMFLOW =          17177.79
     GW BOUNDARY FLOW =                         GW BOUNDARY FLOW =                  

   INFLOWS - OUTFLOWS =        2314716.28     INFLOWS - OUTFLOWS =        -562957.59
             --------                                   --------

 TOTAL STORAGE CHANGE =        3198254.71         STORAGE CHANGE =        -596838.35
       --------------                             --------------
         LAND SURFACE =           2738.53           LAND SURFACE =         -81196.51
            SOIL ZONE =        2417187.98              SOIL ZONE =        -573516.24
     UNSATURATED ZONE =       -7580445.85       UNSATURATED ZONE =           -270.53
       SATURATED ZONE =        8358774.05         SATURATED ZONE =          58144.92

 OVERALL BUDGET ERROR =        -883538.43           BUDGET ERROR =          33880.77

  ***WARNING, FLUX RATES OFF > 3%

  PERCENT DISCREPANCY =             -3.50    PERCENT DISCREPANCY =              5.84



1
 SUMMARY VOLUMETRIC BUDGET FOR GSFLOW 
 DATE: 10 29 1991              CUMULATIVE TIME STEP:      29
 MODFLOW STRESS PERIOD      1     CURRENT TIME STEP:      29     ITERATIONS:       3

 -----------------------------------------------------------------------------------

   CUMULATIVE VOLUMES               L**3   RATES FOR THIS TIME STEP           L**3/T
   ------------------                      ------------------------

                                     IN                                         IN
                                     --                                         --
        PRECIPITATION =        2.6218D+07          PRECIPITATION =        1406347.26
           STREAMFLOW =                               STREAMFLOW =                  
     GW BOUNDARY FLOW =                         GW BOUNDARY FLOW =                  


                                    OUT                                        OUT
                                    ---                                        ---
   EVAPOTRANSPIRATION =        2.2475D+07     EVAPOTRANSPIRATION =         312346.44
           STREAMFLOW =         353307.35             STREAMFLOW =          18675.60
     GW BOUNDARY FLOW =                         GW BOUNDARY FLOW =                  

   INFLOWS - OUTFLOWS =        3390041.50     INFLOWS - OUTFLOWS =        1075325.23
             --------                                   --------

 TOTAL STORAGE CHANGE =        4217034.07         STORAGE CHANGE =        1018779.36
       --------------                             --------------
         LAND SURFACE =          82560.49           LAND SURFACE =          79821.96
            SOIL ZONE =        3298555.44              SOIL ZONE =         881367.46
     UNSATURATED ZONE =       -7580387.68       UNSATURATED ZONE =             58.17
       SATURATED ZONE =        8416305.81         SATURATED ZONE =          57531.77

 OVERALL BUDGET ERROR =        -826992.56           BUDGET ERROR =          56545.87

  ***WARNING, FLUX RATES OFF > 3%

  PERCENT DISCREPANCY =             -3.11    PERCENT DISCREPANCY =              4.10



1
 SUMMARY VOLUMETRIC BUDGET FOR GSFLOW 
 DATE: 10 30 1991              CUMULATIVE TIME STEP:      30
 MODFLOW STRESS PERIOD      1     CURRENT TIME STEP:      30     ITERATIONS:       5

 -----------------------------------------------------------------------------------

   CUMULATIVE VOLUMES               L**3   RATES FOR THIS TIME STEP           L**3/T
   ------------------                      ------------------------

                                     IN                                         IN
                                     --                                         --
        PRECIPITATION =        2.6218D+07          PRECIPITATION =                  
           STREAMFLOW =                               STREAMFLOW =                  
     GW BOUNDARY FLOW =                         GW BOUNDARY FLOW =                  


                                    OUT                                        OUT
                                    ---                                        ---
   EVAPOTRANSPIRATION =        2.3123D+07     EVAPOTRANSPIRATION =         647723.43
           STREAMFLOW =         371933.44             STREAMFLOW =          18626.09
     GW BOUNDARY FLOW =                         GW BOUNDARY FLOW =                  

   INFLOWS - OUTFLOWS =        2723691.98     INFLOWS - OUTFLOWS =        -666349.52
             --------                                   --------

 TOTAL STORAGE CHANGE =        3532607.85         STORAGE CHANGE =        -684426.21
       --------------                             --------------
         LAND SURFACE =           1975.50           LAND SURFACE =         -80584.99
            SOIL ZONE =        2646206.38              SOIL ZONE =        -652349.07
     UNSATURATED ZONE =       -7581147.09       UNSATURATED ZONE =           -759.41
       SATURATED ZONE =        8465573.06         SATURATED ZONE =          49267.25

 OVERALL BUDGET ERROR =        -808915.87           BUDGET ERROR =          18076.69


  PERCENT DISCREPANCY =             -3.04    PERCENT DISCREPANCY =              2.68



1
 SUMMARY VOLUMETRIC BUDGET FOR GSFLOW 
 DATE: 10 31 1991              CUMULATIVE TIME STEP:      31
 MODFLOW STRESS PERIOD      1     CURRENT TIME STEP:      31     ITERATIONS:       3

 -----------------------------------------------------------------------------------

   CUMULATIVE VOLUMES               L**3   RATES FOR THIS TIME STEP           L**3/T
   ------------------                      ------------------------

                                     IN                                         IN
                                     --                                         --
        PRECIPITATION =        2.6218D+07          PRECIPITATION =                  
           STREAMFLOW =                               STREAMFLOW =                  
     GW BOUNDARY FLOW =                         GW BOUNDARY FLOW =                  


                                    OUT                                        OUT
                                    ---                                        ---
   EVAPOTRANSPIRATION =        2.3767D+07     EVAPOTRANSPIRATION =         644193.59
           STREAMFLOW =         390951.73             STREAMFLOW =          19018.29
     GW BOUNDARY FLOW =                         GW BOUNDARY FLOW =                  

   INFLOWS - OUTFLOWS =        2060480.10     INFLOWS - OUTFLOWS =        -663211.88
             --------                                   --------

 TOTAL STORAGE CHANGE =        2864971.94         STORAGE CHANGE =        -667635.92
       --------------                             --------------
         LAND SURFACE =            668.65           LAND SURFACE =          -1306.85
            SOIL ZONE =        1940005.47              SOIL ZONE =        -706200.91
     UNSATURATED ZONE =       -7581915.56       UNSATURATED ZONE =           -768.47
       SATURATED ZONE =        8506213.38         SATURATED ZONE =          40640.31

 OVERALL BUDGET ERROR =        -804491.84           BUDGET ERROR =           4424.04


  PERCENT DISCREPANCY =             -3.02    PERCENT DISCREPANCY =              0.66



1
 SUMMARY VOLUMETRIC BUDGET FOR GSFLOW 
 DATE: 11 01 1991              CUMULATIVE TIME STEP:      32
 MODFLOW STRESS PERIOD      1     CURRENT TIME STEP:      32     ITERATIONS:      25

 -----------------------------------------------------------------------------------

   CUMULATIVE VOLUMES               L**3   RATES FOR THIS TIME STEP           L**3/T
   ------------------                      ------------------------

                                     IN                                         IN
                                     --                                         --
        PRECIPITATION =        2.6218D+07          PRECIPITATION =                  
           STREAMFLOW =                               STREAMFLOW =                  
     GW BOUNDARY FLOW =                         GW BOUNDARY FLOW =                  


                                    OUT                                        OUT
                                    ---                                        ---
   EVAPOTRANSPIRATION =        2.4729D+07     EVAPOTRANSPIRATION =         961745.00
           STREAMFLOW =         440747.22             STREAMFLOW =          49795.49
     GW BOUNDARY FLOW =                         GW BOUNDARY FLOW =                  

   INFLOWS - OUTFLOWS =        1048939.61     INFLOWS - OUTFLOWS =       -1011540.49
             --------                                   --------

 TOTAL STORAGE CHANGE =        1895459.87         STORAGE CHANGE =        -969512.07
       --------------                             --------------
         LAND SURFACE =            355.53           LAND SURFACE =           -313.12
            SOIL ZONE =         947197.60              SOIL ZONE =        -992807.87
     UNSATURATED ZONE =       -7583190.43       UNSATURATED ZONE =          -1274.88
       SATURATED ZONE =        8531097.17         SATURATED ZONE =          24883.80

 OVERALL BUDGET ERROR =        -846520.25           BUDGET ERROR =         -42028.42

  ***WARNING, FLUX RATES OFF > 3%

  PERCENT DISCREPANCY =             -3.18    PERCENT DISCREPANCY =             -4.24



1
 SUMMARY VOLUMETRIC BUDGET FOR GSFLOW 
 DATE: 11 02 1991              CUMULATIVE TIME STEP:      33
 MODFLOW STRESS PERIOD      1     CURRENT TIME STEP:      33     ITERATIONS:       5

 -----------------------------------------------------------------------------------

   CUMULATIVE VOLUMES               L**3   RATES FOR THIS TIME STEP           L**3/T
   ------------------                      ------------------------

                                     IN                                         IN
                                     --                                         --
        PRECIPITATION =        2.6218D+07          PRECIPITATION =                  
           STREAMFLOW =                               STREAMFLOW =                  
     GW BOUNDARY FLOW =                         GW BOUNDARY FLOW =                  


                                    OUT                                        OUT
                                    ---                                        ---
   EVAPOTRANSPIRATION =        2.5459D+07     EVAPOTRANSPIRATION =         730043.90
           STREAMFLOW =         500253.24             STREAMFLOW =          59506.01
     GW BOUNDARY FLOW =                         GW BOUNDARY FLOW =                  

   INFLOWS - OUTFLOWS =         259389.70     INFLOWS - OUTFLOWS =        -789549.92
             --------                                   --------

 TOTAL STORAGE CHANGE =        1166128.72         STORAGE CHANGE =        -729331.15
       --------------                             --------------
         LAND SURFACE =            287.77           LAND SURFACE =            -67.76
            SOIL ZONE =         199011.00              SOIL ZONE =        -748186.60
     UNSATURATED ZONE =       -7584343.27       UNSATURATED ZONE =          -1152.83
       SATURATED ZONE =        8551173.22         SATURATED ZONE =          20076.05

 OVERALL BUDGET ERROR =        -906739.02           BUDGET ERROR =         -60218.77

  ***WARNING, FLUX RATES OFF > 3%

  PERCENT DISCREPANCY =             -3.40    PERCENT DISCREPANCY =             -7.93



1
 SUMMARY VOLUMETRIC BUDGET FOR GSFLOW 
 DATE: 11 03 1991              CUMULATIVE TIME STEP:      34
 MODFLOW STRESS PERIOD      1     CURRENT TIME STEP:      34     ITERATIONS:       3

 -----------------------------------------------------------------------------------

   CUMULATIVE VOLUMES               L**3   RATES FOR THIS TIME STEP           L**3/T
   ------------------                      ------------------------

                                     IN                                         IN
                                     --                                         --
        PRECIPITATION =        2.6218D+07          PRECIPITATION =                  
           STREAMFLOW =                               STREAMFLOW =                  
     GW BOUNDARY FLOW =                         GW BOUNDARY FLOW =                  


                                    OUT                                        OUT
                                    ---                                        ---
   EVAPOTRANSPIRATION =        2.6077D+07     EVAPOTRANSPIRATION =         617962.23
           STREAMFLOW =         565690.17             STREAMFLOW =          65436.93
     GW BOUNDARY FLOW =                         GW BOUNDARY FLOW =                  

   INFLOWS - OUTFLOWS =        -424009.47     INFLOWS - OUTFLOWS =        -683399.17
             --------                                   --------

 TOTAL STORAGE CHANGE =         556029.73         STORAGE CHANGE =        -610098.99
       --------------                             --------------
         LAND SURFACE =            261.68           LAND SURFACE =            -26.08
            SOIL ZONE =        -425356.06              SOIL ZONE =        -624367.06
     UNSATURATED ZONE =       -7585374.61       UNSATURATED ZONE =          -1031.34
       SATURATED ZONE =        8566498.72         SATURATED ZONE =          15325.50

 OVERALL BUDGET ERROR =        -980039.19           BUDGET ERROR =         -73300.18

  ***CAUTION, FLUX RATES OFF > 10%

  PERCENT DISCREPANCY =             -3.67    PERCENT DISCREPANCY =            -11.33



1
 SUMMARY VOLUMETRIC BUDGET FOR GSFLOW 
 DATE: 11 04 1991              CUMULATIVE TIME STEP:      35
 MODFLOW STRESS PERIOD      1     CURRENT TIME STEP:      35     ITERATIONS:       3

 -----------------------------------------------------------------------------------

   CUMULATIVE VOLUMES               L**3   RATES FOR THIS TIME STEP           L**3/T
   ------------------                      ------------------------

                                     IN                                         IN
                                     --                                         --
        PRECIPITATION =        2.6218D+07          PRECIPITATION =                  
           STREAMFLOW =                               STREAMFLOW =                  
     GW BOUNDARY FLOW =                         GW BOUNDARY FLOW =                  


                                    OUT                                        OUT
                                    ---                                        ---
   EVAPOTRANSPIRATION =        2.6716D+07     EVAPOTRANSPIRATION =         639527.22
           STREAMFLOW =         612903.50             STREAMFLOW =          47213.33
     GW BOUNDARY FLOW =                         GW BOUNDARY FLOW =                  

   INFLOWS - OUTFLOWS =       -1110750.02     INFLOWS - OUTFLOWS =        -686740.55
             --------                                   --------

 TOTAL STORAGE CHANGE =         -70551.96         STORAGE CHANGE =        -626581.69
       --------------                             --------------
         LAND SURFACE =            246.97           LAND SURFACE =            -14.71
            SOIL ZONE =       -1056947.97              SOIL ZONE =        -631591.91
     UNSATURATED ZONE =       -7586387.21       UNSATURATED ZONE =          -1012.60
       SATURATED ZONE =        8572536.25         SATURATED ZONE =           6037.53

 OVERALL BUDGET ERROR =       -1040198.05           BUDGET ERROR =         -60158.86

  ***WARNING, FLUX RATES OFF > 3%

  PERCENT DISCREPANCY =             -3.88    PERCENT DISCREPANCY =             -9.16



1
 SUMMARY VOLUMETRIC BUDGET FOR GSFLOW 
 DATE: 11 05 1991              CUMULATIVE TIME STEP:      36
 MODFLOW STRESS PERIOD      1     CURRENT TIME STEP:      36     ITERATIONS:       5

 -----------------------------------------------------------------------------------

   CUMULATIVE VOLUMES               L**3   RATES FOR THIS TIME STEP           L**3/T
   ------------------                      ------------------------

                                     IN                                         IN
                                     --                                         --
        PRECIPITATION =        2.6218D+07          PRECIPITATION =                  
           STREAMFLOW =                               STREAMFLOW =                  
     GW BOUNDARY FLOW =                         GW BOUNDARY FLOW =                  


                                    OUT                                        OUT
                                    ---                                        ---
   EVAPOTRANSPIRATION =        2.7433D+07     EVAPOTRANSPIRATION =         717076.42
           STREAMFLOW =         672744.62             STREAMFLOW =          59841.12
     GW BOUNDARY FLOW =                         GW BOUNDARY FLOW =                  

   INFLOWS - OUTFLOWS =       -1887667.56     INFLOWS - OUTFLOWS =        -776917.54
             --------                                   --------

 TOTAL STORAGE CHANGE =        -768234.08         STORAGE CHANGE =        -697682.11
       --------------                             --------------
         LAND SURFACE =            238.68           LAND SURFACE =             -8.29
            SOIL ZONE =       -1744904.00              SOIL ZONE =        -687956.03
     UNSATURATED ZONE =       -7587525.32       UNSATURATED ZONE =          -1138.11
       SATURATED ZONE =        8563956.56         SATURATED ZONE =          -8579.69

 OVERALL BUDGET ERROR =       -1119433.48           BUDGET ERROR =         -79235.42

  ***CAUTION, FLUX RATES OFF > 10%

  PERCENT DISCREPANCY =             -4.06    PERCENT DISCREPANCY =            -10.75



1
 SUMMARY VOLUMETRIC BUDGET FOR GSFLOW 
 DATE: 11 06 1991              CUMULATIVE TIME STEP:      37
 MODFLOW STRESS PERIOD      1     CURRENT TIME STEP:      37     ITERATIONS:      24

 -----------------------------------------------------------------------------------

   CUMULATIVE VOLUMES               L**3   RATES FOR THIS TIME STEP           L**3/T
   ------------------                      ------------------------

                                     IN                                         IN
                                     --                                         --
        PRECIPITATION =        2.6218D+07          PRECIPITATION =                  
           STREAMFLOW =                               STREAMFLOW =                  
     GW BOUNDARY FLOW =                         GW BOUNDARY FLOW =                  


                                    OUT                                        OUT
                                    ---                                        ---
   EVAPOTRANSPIRATION =        2.8194D+07     EVAPOTRANSPIRATION =         760272.25
           STREAMFLOW =         781844.22             STREAMFLOW =         109099.59
     GW BOUNDARY FLOW =                         GW BOUNDARY FLOW =                  

   INFLOWS - OUTFLOWS =       -2757039.40     INFLOWS - OUTFLOWS =        -869371.84
             --------                                   --------

 TOTAL STORAGE CHANGE =       -1501984.84         STORAGE CHANGE =        -733750.76
       --------------                             --------------
         LAND SURFACE =            235.43           LAND SURFACE =             -3.25
            SOIL ZONE =       -2453001.13              SOIL ZONE =        -708097.14
     UNSATURATED ZONE =       -7601979.69       UNSATURATED ZONE =         -14454.37
       SATURATED ZONE =        8552760.56         SATURATED ZONE =         -11196.00

 OVERALL BUDGET ERROR =       -1255054.56           BUDGET ERROR =        -135621.08

  ***CAUTION, FLUX RATES OFF > 10%

  PERCENT DISCREPANCY =             -4.43    PERCENT DISCREPANCY =            -16.92



1
 SUMMARY VOLUMETRIC BUDGET FOR GSFLOW 
 DATE: 11 07 1991              CUMULATIVE TIME STEP:      38
 MODFLOW STRESS PERIOD      1     CURRENT TIME STEP:      38     ITERATIONS:       5

 -----------------------------------------------------------------------------------

   CUMULATIVE VOLUMES               L**3   RATES FOR THIS TIME STEP           L**3/T
   ------------------                      ------------------------

                                     IN                                         IN
                                     --                                         --
        PRECIPITATION =        2.6218D+07          PRECIPITATION =                  
           STREAMFLOW =                               STREAMFLOW =                  
     GW BOUNDARY FLOW =                         GW BOUNDARY FLOW =                  


                                    OUT                                        OUT
                                    ---                                        ---
   EVAPOTRANSPIRATION =        2.8729D+07     EVAPOTRANSPIRATION =         535111.69
           STREAMFLOW =         891791.93             STREAMFLOW =         109947.71
     GW BOUNDARY FLOW =                         GW BOUNDARY FLOW =                  

   INFLOWS - OUTFLOWS =       -3402098.80     INFLOWS - OUTFLOWS =        -645059.40
             --------                                   --------

 TOTAL STORAGE CHANGE =       -2007727.96         STORAGE CHANGE =        -505743.12
       --------------                             --------------
         LAND SURFACE =            234.93           LAND SURFACE =             -0.50
            SOIL ZONE =       -2942627.76              SOIL ZONE =        -489626.63
[...]
            SOIL ZONE =        2870350.97              SOIL ZONE =        -122435.53
     UNSATURATED ZONE =        9938174.63       UNSATURATED ZONE =           -472.76
       SATURATED ZONE =       -8.1505D+07         SATURATED ZONE =         -80057.04

 OVERALL BUDGET ERROR =       -3.5949D+08           BUDGET ERROR =         -16086.50

  ***WARNING, CUMULATIVE VOLUME OFF > 5%
  ***WARNING, FLUX RATES OFF > 3%

  PERCENT DISCREPANCY =            -18.18    PERCENT DISCREPANCY =             -7.62



1
 SUMMARY VOLUMETRIC BUDGET FOR GSFLOW 
 DATE: 09 18 1996              CUMULATIVE TIME STEP:    1815
 MODFLOW STRESS PERIOD      1     CURRENT TIME STEP:    1815     ITERATIONS:       3

 -----------------------------------------------------------------------------------

   CUMULATIVE VOLUMES               L**3   RATES FOR THIS TIME STEP           L**3/T
   ------------------                      ------------------------

                                     IN                                         IN
                                     --                                         --
        PRECIPITATION =        1.7288D+09          PRECIPITATION =                  
           STREAMFLOW =                               STREAMFLOW =                  
     GW BOUNDARY FLOW =                         GW BOUNDARY FLOW =                  


                                    OUT                                        OUT
                                    ---                                        ---
   EVAPOTRANSPIRATION =        1.2560D+09     EVAPOTRANSPIRATION =         220035.00
           STREAMFLOW =        9.0124D+08             STREAMFLOW =           2091.80
     GW BOUNDARY FLOW =                         GW BOUNDARY FLOW =                  

   INFLOWS - OUTFLOWS =       -4.2841D+08     INFLOWS - OUTFLOWS =        -222126.81
             --------                                   --------

 TOTAL STORAGE CHANGE =       -6.8902D+07         STORAGE CHANGE =        -204801.86
       --------------                             --------------
         LAND SURFACE =                             LAND SURFACE =                  
            SOIL ZONE =        2747808.20              SOIL ZONE =        -122542.78
     UNSATURATED ZONE =        9937732.92       UNSATURATED ZONE =           -441.70
       SATURATED ZONE =       -8.1587D+07         SATURATED ZONE =         -81817.38

 OVERALL BUDGET ERROR =       -3.5951D+08           BUDGET ERROR =         -17324.95

  ***WARNING, CUMULATIVE VOLUME OFF > 5%
  ***WARNING, FLUX RATES OFF > 3%

  PERCENT DISCREPANCY =            -18.18    PERCENT DISCREPANCY =             -8.12



1
 SUMMARY VOLUMETRIC BUDGET FOR GSFLOW 
 DATE: 09 19 1996              CUMULATIVE TIME STEP:    1816
 MODFLOW STRESS PERIOD      1     CURRENT TIME STEP:    1816     ITERATIONS:       4

 -----------------------------------------------------------------------------------

   CUMULATIVE VOLUMES               L**3   RATES FOR THIS TIME STEP           L**3/T
   ------------------                      ------------------------

                                     IN                                         IN
                                     --                                         --
        PRECIPITATION =        1.7288D+09          PRECIPITATION =                  
           STREAMFLOW =                               STREAMFLOW =                  
     GW BOUNDARY FLOW =                         GW BOUNDARY FLOW =                  


                                    OUT                                        OUT
                                    ---                                        ---
   EVAPOTRANSPIRATION =        1.2562D+09     EVAPOTRANSPIRATION =         223759.22
           STREAMFLOW =        9.0124D+08             STREAMFLOW =           2447.90
     GW BOUNDARY FLOW =                         GW BOUNDARY FLOW =                  

   INFLOWS - OUTFLOWS =       -4.2864D+08     INFLOWS - OUTFLOWS =        -226207.12
             --------                                   --------

 TOTAL STORAGE CHANGE =       -6.9109D+07         STORAGE CHANGE =        -207673.25
       --------------                             --------------
         LAND SURFACE =                             LAND SURFACE =                  
            SOIL ZONE =        2623354.97              SOIL ZONE =        -124453.22
     UNSATURATED ZONE =        9937295.16       UNSATURATED ZONE =           -437.76
       SATURATED ZONE =       -8.1670D+07         SATURATED ZONE =         -82782.27

 OVERALL BUDGET ERROR =       -3.5953D+08           BUDGET ERROR =         -18533.87

  ***WARNING, CUMULATIVE VOLUME OFF > 5%
  ***WARNING, FLUX RATES OFF > 3%

  PERCENT DISCREPANCY =            -18.18    PERCENT DISCREPANCY =             -8.54



1
 SUMMARY VOLUMETRIC BUDGET FOR GSFLOW 
 DATE: 09 20 1996              CUMULATIVE TIME STEP:    1817
 MODFLOW STRESS PERIOD      1     CURRENT TIME STEP:    1817     ITERATIONS:       3

 -----------------------------------------------------------------------------------

   CUMULATIVE VOLUMES               L**3   RATES FOR THIS TIME STEP           L**3/T
   ------------------                      ------------------------

                                     IN                                         IN
                                     --                                         --
        PRECIPITATION =        1.7288D+09          PRECIPITATION =                  
           STREAMFLOW =                               STREAMFLOW =                  
     GW BOUNDARY FLOW =                         GW BOUNDARY FLOW =                  


                                    OUT                                        OUT
                                    ---                                        ---
   EVAPOTRANSPIRATION =        1.2565D+09     EVAPOTRANSPIRATION =         219942.06
           STREAMFLOW =        9.0125D+08             STREAMFLOW =           2424.01
     GW BOUNDARY FLOW =                         GW BOUNDARY FLOW =                  

   INFLOWS - OUTFLOWS =       -4.2886D+08     INFLOWS - OUTFLOWS =        -222366.07
             --------                                   --------

 TOTAL STORAGE CHANGE =       -6.9315D+07         STORAGE CHANGE =        -205567.54
       --------------                             --------------
         LAND SURFACE =                             LAND SURFACE =                  
            SOIL ZONE =        2500494.25              SOIL ZONE =        -122860.73
     UNSATURATED ZONE =        9936858.74       UNSATURATED ZONE =           -436.42
       SATURATED ZONE =       -8.1752D+07         SATURATED ZONE =         -82270.39

 OVERALL BUDGET ERROR =       -3.5955D+08           BUDGET ERROR =         -16798.53

  ***WARNING, CUMULATIVE VOLUME OFF > 5%
  ***WARNING, FLUX RATES OFF > 3%

  PERCENT DISCREPANCY =            -18.18    PERCENT DISCREPANCY =             -7.85



1
 SUMMARY VOLUMETRIC BUDGET FOR GSFLOW 
 DATE: 09 21 1996              CUMULATIVE TIME STEP:    1818
 MODFLOW STRESS PERIOD      1     CURRENT TIME STEP:    1818     ITERATIONS:       4

 -----------------------------------------------------------------------------------

   CUMULATIVE VOLUMES               L**3   RATES FOR THIS TIME STEP           L**3/T
   ------------------                      ------------------------

                                     IN                                         IN
                                     --                                         --
        PRECIPITATION =        1.7288D+09          PRECIPITATION =                  
           STREAMFLOW =                               STREAMFLOW =                  
     GW BOUNDARY FLOW =                         GW BOUNDARY FLOW =                  


                                    OUT                                        OUT
                                    ---                                        ---
   EVAPOTRANSPIRATION =        1.2566D+09     EVAPOTRANSPIRATION =         193800.57
           STREAMFLOW =        9.0125D+08             STREAMFLOW =           2052.05
     GW BOUNDARY FLOW =                         GW BOUNDARY FLOW =                  

   INFLOWS - OUTFLOWS =       -4.2906D+08     INFLOWS - OUTFLOWS =        -195852.62
             --------                                   --------

 TOTAL STORAGE CHANGE =       -6.9494D+07         STORAGE CHANGE =        -179678.68
       --------------                             --------------
         LAND SURFACE =                             LAND SURFACE =                  
            SOIL ZONE =        2396033.84              SOIL ZONE =        -104460.41
     UNSATURATED ZONE =        9936422.89       UNSATURATED ZONE =           -435.85
       SATURATED ZONE =       -8.1827D+07         SATURATED ZONE =         -74782.42

 OVERALL BUDGET ERROR =       -3.5956D+08           BUDGET ERROR =         -16173.94

  ***WARNING, CUMULATIVE VOLUME OFF > 5%
  ***WARNING, FLUX RATES OFF > 3%

  PERCENT DISCREPANCY =            -18.18    PERCENT DISCREPANCY =             -8.61



1
 SUMMARY VOLUMETRIC BUDGET FOR GSFLOW 
 DATE: 09 22 1996              CUMULATIVE TIME STEP:    1819
 MODFLOW STRESS PERIOD      1     CURRENT TIME STEP:    1819     ITERATIONS:       3

 -----------------------------------------------------------------------------------

   CUMULATIVE VOLUMES               L**3   RATES FOR THIS TIME STEP           L**3/T
   ------------------                      ------------------------

                                     IN                                         IN
                                     --                                         --
        PRECIPITATION =        1.7288D+09          PRECIPITATION =                  
           STREAMFLOW =                               STREAMFLOW =                  
     GW BOUNDARY FLOW =                         GW BOUNDARY FLOW =                  


                                    OUT                                        OUT
                                    ---                                        ---
   EVAPOTRANSPIRATION =        1.2568D+09     EVAPOTRANSPIRATION =         153988.72
           STREAMFLOW =        9.0125D+08             STREAMFLOW =           2478.90
     GW BOUNDARY FLOW =                         GW BOUNDARY FLOW =                  

   INFLOWS - OUTFLOWS =       -4.2921D+08     INFLOWS - OUTFLOWS =        -156467.62
             --------                                   --------

 TOTAL STORAGE CHANGE =       -6.9638D+07         STORAGE CHANGE =        -143714.76
       --------------                             --------------
         LAND SURFACE =                             LAND SURFACE =                  
            SOIL ZONE =        2313628.53              SOIL ZONE =         -82405.31
     UNSATURATED ZONE =        9935977.56       UNSATURATED ZONE =           -445.33
       SATURATED ZONE =       -8.1888D+07         SATURATED ZONE =         -60864.11

 OVERALL BUDGET ERROR =       -3.5957D+08           BUDGET ERROR =         -12752.86

  ***WARNING, CUMULATIVE VOLUME OFF > 5%
  ***WARNING, FLUX RATES OFF > 3%

  PERCENT DISCREPANCY =            -18.18    PERCENT DISCREPANCY =             -8.50



1
 SUMMARY VOLUMETRIC BUDGET FOR GSFLOW 
 DATE: 09 23 1996              CUMULATIVE TIME STEP:    1820
 MODFLOW STRESS PERIOD      1     CURRENT TIME STEP:    1820     ITERATIONS:       4

 -----------------------------------------------------------------------------------

   CUMULATIVE VOLUMES               L**3   RATES FOR THIS TIME STEP           L**3/T
   ------------------                      ------------------------

                                     IN                                         IN
                                     --                                         --
        PRECIPITATION =        1.7288D+09          PRECIPITATION =                  
           STREAMFLOW =                               STREAMFLOW =                  
     GW BOUNDARY FLOW =                         GW BOUNDARY FLOW =                  


                                    OUT                                        OUT
                                    ---                                        ---
   EVAPOTRANSPIRATION =        1.2569D+09     EVAPOTRANSPIRATION =         141984.43
           STREAMFLOW =        9.0125D+08             STREAMFLOW =           2669.33
     GW BOUNDARY FLOW =                         GW BOUNDARY FLOW =                  

   INFLOWS - OUTFLOWS =       -4.2936D+08     INFLOWS - OUTFLOWS =        -144653.76
             --------                                   --------

 TOTAL STORAGE CHANGE =       -6.9772D+07         STORAGE CHANGE =        -134218.88
       --------------                             --------------
         LAND SURFACE =                             LAND SURFACE =                  
            SOIL ZONE =        2237344.96              SOIL ZONE =         -76283.57
     UNSATURATED ZONE =        9935528.07       UNSATURATED ZONE =           -449.49
       SATURATED ZONE =       -8.1945D+07         SATURATED ZONE =         -57485.82

 OVERALL BUDGET ERROR =       -3.5958D+08           BUDGET ERROR =         -10434.88

  ***WARNING, CUMULATIVE VOLUME OFF > 5%
  ***WARNING, FLUX RATES OFF > 3%

  PERCENT DISCREPANCY =            -18.18    PERCENT DISCREPANCY =             -7.48



1
 SUMMARY VOLUMETRIC BUDGET FOR GSFLOW 
 DATE: 09 24 1996              CUMULATIVE TIME STEP:    1821
 MODFLOW STRESS PERIOD      1     CURRENT TIME STEP:    1821     ITERATIONS:       3

 -----------------------------------------------------------------------------------

   CUMULATIVE VOLUMES               L**3   RATES FOR THIS TIME STEP           L**3/T
   ------------------                      ------------------------

                                     IN                                         IN
                                     --                                         --
        PRECIPITATION =        1.7288D+09          PRECIPITATION =                  
           STREAMFLOW =                               STREAMFLOW =                  
     GW BOUNDARY FLOW =                         GW BOUNDARY FLOW =                  


                                    OUT                                        OUT
                                    ---                                        ---
   EVAPOTRANSPIRATION =        1.2571D+09     EVAPOTRANSPIRATION =         154928.03
           STREAMFLOW =        9.0126D+08             STREAMFLOW =           2949.57
     GW BOUNDARY FLOW =                         GW BOUNDARY FLOW =                  

   INFLOWS - OUTFLOWS =       -4.2952D+08     INFLOWS - OUTFLOWS =        -157877.60
             --------                                   --------

 TOTAL STORAGE CHANGE =       -6.9920D+07         STORAGE CHANGE =        -148042.42
       --------------                             --------------
         LAND SURFACE =                             LAND SURFACE =                  
            SOIL ZONE =        2151382.64              SOIL ZONE =         -85962.31
     UNSATURATED ZONE =        9935080.12       UNSATURATED ZONE =           -447.95
       SATURATED ZONE =       -8.2007D+07         SATURATED ZONE =         -61632.15

 OVERALL BUDGET ERROR =       -3.5959D+08           BUDGET ERROR =          -9835.18

  ***WARNING, CUMULATIVE VOLUME OFF > 5%
  ***WARNING, FLUX RATES OFF > 3%

  PERCENT DISCREPANCY =            -18.17    PERCENT DISCREPANCY =             -6.43



1
 SUMMARY VOLUMETRIC BUDGET FOR GSFLOW 
 DATE: 09 25 1996              CUMULATIVE TIME STEP:    1822
 MODFLOW STRESS PERIOD      1     CURRENT TIME STEP:    1822     ITERATIONS:       3

 -----------------------------------------------------------------------------------

   CUMULATIVE VOLUMES               L**3   RATES FOR THIS TIME STEP           L**3/T
   ------------------                      ------------------------

                                     IN                                         IN
                                     --                                         --
        PRECIPITATION =        1.7288D+09          PRECIPITATION =                  
           STREAMFLOW =                               STREAMFLOW =                  
     GW BOUNDARY FLOW =                         GW BOUNDARY FLOW =                  


                                    OUT                                        OUT
                                    ---                                        ---
   EVAPOTRANSPIRATION =        1.2572D+09     EVAPOTRANSPIRATION =         148265.86
           STREAMFLOW =        9.0126D+08             STREAMFLOW =           3199.20
     GW BOUNDARY FLOW =                         GW BOUNDARY FLOW =                  

   INFLOWS - OUTFLOWS =       -4.2967D+08     INFLOWS - OUTFLOWS =        -151465.07
             --------                                   --------

 TOTAL STORAGE CHANGE =       -7.0060D+07         STORAGE CHANGE =        -139960.26
       --------------                             --------------
         LAND SURFACE =                             LAND SURFACE =                  
            SOIL ZONE =        2071659.77              SOIL ZONE =         -79722.87
     UNSATURATED ZONE =        9934625.33       UNSATURATED ZONE =           -454.79
       SATURATED ZONE =       -8.2067D+07         SATURATED ZONE =         -59782.60

 OVERALL BUDGET ERROR =       -3.5961D+08           BUDGET ERROR =         -11504.81

  ***WARNING, CUMULATIVE VOLUME OFF > 5%
  ***WARNING, FLUX RATES OFF > 3%

  PERCENT DISCREPANCY =            -18.17    PERCENT DISCREPANCY =             -7.90



1
 SUMMARY VOLUMETRIC BUDGET FOR GSFLOW 
 DATE: 09 26 1996              CUMULATIVE TIME STEP:    1823
 MODFLOW STRESS PERIOD      1     CURRENT TIME STEP:    1823     ITERATIONS:       3

 -----------------------------------------------------------------------------------

   CUMULATIVE VOLUMES               L**3   RATES FOR THIS TIME STEP           L**3/T
   ------------------                      ------------------------

                                     IN                                         IN
                                     --                                         --
        PRECIPITATION =        1.7288D+09          PRECIPITATION =                  
           STREAMFLOW =                               STREAMFLOW =                  
     GW BOUNDARY FLOW =                         GW BOUNDARY FLOW =                  


                                    OUT                                        OUT
                                    ---                                        ---
   EVAPOTRANSPIRATION =        1.2574D+09     EVAPOTRANSPIRATION =         154674.85
           STREAMFLOW =        9.0126D+08             STREAMFLOW =           3656.91
     GW BOUNDARY FLOW =                         GW BOUNDARY FLOW =                  

   INFLOWS - OUTFLOWS =       -4.2982D+08     INFLOWS - OUTFLOWS =        -158331.76
             --------                                   --------

 TOTAL STORAGE CHANGE =       -7.0207D+07         STORAGE CHANGE =        -146644.07
       --------------                             --------------
         LAND SURFACE =                             LAND SURFACE =                  
            SOIL ZONE =        1988617.27              SOIL ZONE =         -83042.50
     UNSATURATED ZONE =        9934175.20       UNSATURATED ZONE =           -450.13
       SATURATED ZONE =       -8.2130D+07         SATURATED ZONE =         -63151.44

 OVERALL BUDGET ERROR =       -3.5962D+08           BUDGET ERROR =         -11687.69

  ***WARNING, CUMULATIVE VOLUME OFF > 5%
  ***WARNING, FLUX RATES OFF > 3%

  PERCENT DISCREPANCY =            -18.17    PERCENT DISCREPANCY =             -7.66



